# File generated by Flopy version 3.9.3 on 09/03/2025 at 10:28:36.
BEGIN options
END options

BEGIN dimensions
  MAXBOUND  462
END dimensions

BEGIN period  1
  1 1 1.77809353E+03 1.00000000E-02
  2 4 1.78308125E+03 1.00000000E-02
  1 7 1.76945354E+03 1.00000000E-02
  2 18 1.80889039E+03 1.00000000E-02
  1 19 1.77907062E+03 1.00000000E-02
  1 20 1.72615676E+03 1.00000000E-02
  1 22 1.69400292E+03 1.00000000E-02
  1 24 1.77627190E+03 1.00000000E-02
  2 25 1.73609875E+03 1.00000000E-02
  1 27 1.79453087E+03 1.00000000E-02
  1 28 1.77080878E+03 1.00000000E-02
  1 30 1.69431672E+03 1.00000000E-02
  2 31 1.69642388E+03 1.00000000E-02
  2 32 1.69571481E+03 1.00000000E-02
  1 33 1.69483260E+03 1.00000000E-02
  2 34 1.70225441E+03 1.00000000E-02
  2 36 1.83793462E+03 1.00000000E-02
  2 37 1.70479065E+03 1.00000000E-02
  1 38 1.77659012E+03 1.00000000E-02
  3 39 1.72731201E+03 1.00000000E-02
  2 40 1.71216998E+03 1.00000000E-02
  2 42 1.70812444E+03 1.00000000E-02
  2 43 1.71441619E+03 1.00000000E-02
  2 44 1.77063131E+03 1.00000000E-02
  2 45 1.77276287E+03 1.00000000E-02
  2 46 1.77390229E+03 1.00000000E-02
  2 47 1.77151184E+03 1.00000000E-02
  2 48 1.76847604E+03 1.00000000E-02
  2 50 1.76543185E+03 1.00000000E-02
  2 52 1.76238765E+03 1.00000000E-02
  2 54 1.76020940E+03 1.00000000E-02
  2 55 1.75811236E+03 1.00000000E-02
  2 57 1.75601770E+03 1.00000000E-02
  2 59 1.75395804E+03 1.00000000E-02
  2 60 1.75193627E+03 1.00000000E-02
  2 62 1.74987412E+03 1.00000000E-02
  2 63 1.74787960E+03 1.00000000E-02
  2 65 1.74564099E+03 1.00000000E-02
  2 66 1.74338195E+03 1.00000000E-02
  2 68 1.74116264E+03 1.00000000E-02
  2 70 1.73900955E+03 1.00000000E-02
  2 72 1.73684687E+03 1.00000000E-02
  2 74 1.73468419E+03 1.00000000E-02
  2 76 1.73234060E+03 1.00000000E-02
  2 78 1.72988872E+03 1.00000000E-02
  2 80 1.72738229E+03 1.00000000E-02
  2 82 1.72487586E+03 1.00000000E-02
  2 84 1.72226976E+03 1.00000000E-02
  2 86 1.71963932E+03 1.00000000E-02
  2 88 1.71700333E+03 1.00000000E-02
  1 90 1.69973979E+03 1.00000000E-02
  2 95 1.69932861E+03 1.00000000E-02
  1 96 1.69490119E+03 1.00000000E-02
  2 97 1.70201536E+03 1.00000000E-02
  2 99 1.70238092E+03 1.00000000E-02
  2 101 1.70076634E+03 1.00000000E-02
  2 102 1.71048695E+03 1.00000000E-02
  2 104 1.70146570E+03 1.00000000E-02
  2 105 1.70635847E+03 1.00000000E-02
  2 106 1.70838176E+03 1.00000000E-02
  2 109 1.71259214E+03 1.00000000E-02
  2 110 1.71420043E+03 1.00000000E-02
  2 111 1.71532767E+03 1.00000000E-02
  2 113 1.71645492E+03 1.00000000E-02
  2 114 1.71758216E+03 1.00000000E-02
  2 116 1.71847778E+03 1.00000000E-02
  2 118 1.71786338E+03 1.00000000E-02
  2 119 1.71724898E+03 1.00000000E-02
  2 121 1.71663457E+03 1.00000000E-02
  2 123 1.71602017E+03 1.00000000E-02
  1 125 1.71665713E+03 1.00000000E-02
  2 127 1.71905518E+03 1.00000000E-02
  2 129 1.72135730E+03 1.00000000E-02
  2 131 1.72375534E+03 1.00000000E-02
  2 133 1.72592122E+03 1.00000000E-02
  3 134 1.72819099E+03 1.00000000E-02
  2 136 1.72869393E+03 1.00000000E-02
  2 138 1.72763819E+03 1.00000000E-02
  2 140 1.72503018E+03 1.00000000E-02
  2 142 1.72464875E+03 1.00000000E-02
  1 145 1.72419523E+03 1.00000000E-02
  1 147 1.72740558E+03 1.00000000E-02
  2 148 1.73004491E+03 1.00000000E-02
  1 150 1.72578029E+03 1.00000000E-02
  2 151 1.73973100E+03 1.00000000E-02
  2 152 1.74355853E+03 1.00000000E-02
  2 153 1.74603047E+03 1.00000000E-02
  1 154 1.73404546E+03 1.00000000E-02
  1 156 1.74635914E+03 1.00000000E-02
  1 158 1.74707647E+03 1.00000000E-02
  1 159 1.74779990E+03 1.00000000E-02
  1 161 1.74883930E+03 1.00000000E-02
  1 163 1.75016305E+03 1.00000000E-02
  1 165 1.75148680E+03 1.00000000E-02
  1 166 1.75311282E+03 1.00000000E-02
  2 168 1.75552772E+03 1.00000000E-02
  1 170 1.75772337E+03 1.00000000E-02
  1 171 1.76255062E+03 1.00000000E-02
  2 173 1.76800609E+03 1.00000000E-02
  1 175 1.76809946E+03 1.00000000E-02
  1 177 1.76807713E+03 1.00000000E-02
  1 179 1.76830046E+03 1.00000000E-02
  1 181 1.76842595E+03 1.00000000E-02
  1 184 1.76966625E+03 1.00000000E-02
  1 186 1.77010673E+03 1.00000000E-02
  1 188 1.77511115E+03 1.00000000E-02
  1 189 1.77077027E+03 1.00000000E-02
  1 190 1.77162742E+03 1.00000000E-02
  1 192 1.77742793E+03 1.00000000E-02
  1 193 1.78193907E+03 1.00000000E-02
  1 194 1.78706269E+03 1.00000000E-02
  2 195 1.79855495E+03 1.00000000E-02
  2 197 1.80363158E+03 1.00000000E-02
  1 198 1.78940207E+03 1.00000000E-02
  2 199 1.81209571E+03 1.00000000E-02
  2 202 1.81627231E+03 1.00000000E-02
  2 203 1.80527896E+03 1.00000000E-02
  3 204 1.81958458E+03 1.00000000E-02
  3 205 1.82289684E+03 1.00000000E-02
  3 207 1.82648643E+03 1.00000000E-02
  3 208 1.82952545E+03 1.00000000E-02
  3 210 1.83179231E+03 1.00000000E-02
  2 212 1.83405918E+03 1.00000000E-02
  2 213 1.83647588E+03 1.00000000E-02
  2 222 1.70965888E+03 1.00000000E-02
  2 230 1.77485646E+03 1.00000000E-02
  2 322 1.83893998E+03 1.00000000E-02
  2 328 1.77578272E+03 1.00000000E-02
  2 342 1.83987639E+03 1.00000000E-02
  2 345 1.77587700E+03 1.00000000E-02
  2 353 1.84061559E+03 1.00000000E-02
  2 385 1.77563053E+03 1.00000000E-02
  2 400 1.84203962E+03 1.00000000E-02
  2 405 1.77453971E+03 1.00000000E-02
  2 415 1.84346366E+03 1.00000000E-02
  1 423 1.77398719E+03 1.00000000E-02
  2 434 1.84488769E+03 1.00000000E-02
  1 441 1.77379701E+03 1.00000000E-02
  3 468 1.84634998E+03 1.00000000E-02
  1 477 1.77360683E+03 1.00000000E-02
  3 492 1.84799001E+03 1.00000000E-02
  1 497 1.77435023E+03 1.00000000E-02
  3 511 1.84949571E+03 1.00000000E-02
  1 521 1.77744688E+03 1.00000000E-02
  3 539 1.85100141E+03 1.00000000E-02
  2 547 1.78054352E+03 1.00000000E-02
  3 579 1.85250711E+03 1.00000000E-02
  2 592 1.78364017E+03 1.00000000E-02
  3 605 1.85402054E+03 1.00000000E-02
  2 612 1.78689684E+03 1.00000000E-02
  3 636 1.85559168E+03 1.00000000E-02
  2 649 1.78980420E+03 1.00000000E-02
  3 669 1.85728495E+03 1.00000000E-02
  2 675 1.79181991E+03 1.00000000E-02
  3 710 1.85895874E+03 1.00000000E-02
  2 716 1.79383562E+03 1.00000000E-02
  3 739 1.86063252E+03 1.00000000E-02
  3 751 1.79585132E+03 1.00000000E-02
  3 778 1.86230630E+03 1.00000000E-02
  3 784 1.79759853E+03 1.00000000E-02
  3 811 1.86399044E+03 1.00000000E-02
  2 818 1.79929261E+03 1.00000000E-02
  2 853 1.86577193E+03 1.00000000E-02
  2 865 1.80087361E+03 1.00000000E-02
  2 886 1.86759900E+03 1.00000000E-02
  2 900 1.80245461E+03 1.00000000E-02
  2 920 1.86942882E+03 1.00000000E-02
  2 926 1.80403560E+03 1.00000000E-02
  2 950 1.87125863E+03 1.00000000E-02
  2 962 1.80580843E+03 1.00000000E-02
  2 996 1.87312043E+03 1.00000000E-02
  2 1004 1.80748379E+03 1.00000000E-02
  2 1026 1.87525657E+03 1.00000000E-02
  2 1036 1.80890042E+03 1.00000000E-02
  2 1054 1.87731600E+03 1.00000000E-02
  2 1064 1.81031704E+03 1.00000000E-02
  2 1078 1.87936868E+03 1.00000000E-02
  2 1092 1.81173367E+03 1.00000000E-02
  2 1120 1.88142136E+03 1.00000000E-02
  2 1128 1.81304549E+03 1.00000000E-02
  2 1152 1.88347400E+03 1.00000000E-02
  3 1156 1.81428506E+03 1.00000000E-02
  2 1178 1.88558342E+03 1.00000000E-02
  3 1186 1.81535154E+03 1.00000000E-02
  2 1203 1.88788843E+03 1.00000000E-02
  3 1210 1.81643478E+03 1.00000000E-02
  2 1243 1.89022065E+03 1.00000000E-02
  3 1249 1.81752923E+03 1.00000000E-02
  2 1264 1.89255288E+03 1.00000000E-02
  2 1270 1.81862368E+03 1.00000000E-02
  2 1282 1.89492265E+03 1.00000000E-02
  2 1291 1.81964436E+03 1.00000000E-02
  2 1306 1.89737425E+03 1.00000000E-02
  1 1312 1.82139816E+03 1.00000000E-02
  2 1343 1.90005400E+03 1.00000000E-02
  2 1348 1.82139728E+03 1.00000000E-02
  2 1349 1.82048153E+03 1.00000000E-02
  2 1405 1.90273375E+03 1.00000000E-02
  2 1502 1.82236653E+03 1.00000000E-02
  2 1736 1.90541350E+03 1.00000000E-02
  2 1828 1.82333578E+03 1.00000000E-02
  2 2070 1.90793223E+03 1.00000000E-02
  2 2199 1.82404307E+03 1.00000000E-02
  2 2643 1.91054249E+03 1.00000000E-02
  2 2814 1.82445980E+03 1.00000000E-02
  1 3244 1.94375835E+03 1.00000000E-02
  2 3245 1.91322859E+03 1.00000000E-02
  2 3417 1.82510364E+03 1.00000000E-02
  2 3913 1.91591469E+03 1.00000000E-02
  2 4151 1.82574747E+03 1.00000000E-02
  2 4764 1.91842844E+03 1.00000000E-02
  2 5006 1.82643104E+03 1.00000000E-02
  2 5622 1.92152573E+03 1.00000000E-02
  2 5856 1.82702649E+03 1.00000000E-02
  2 6474 1.92403854E+03 1.00000000E-02
  2 6811 1.82741502E+03 1.00000000E-02
  2 7741 1.92661922E+03 1.00000000E-02
  2 8099 1.82768545E+03 1.00000000E-02
  2 9043 1.92919991E+03 1.00000000E-02
  2 9400 1.82771542E+03 1.00000000E-02
  2 10345 1.93144667E+03 1.00000000E-02
  2 11492 1.93099911E+03 1.00000000E-02
  2 11794 1.82734884E+03 1.00000000E-02
  2 12225 1.82430000E+03 1.00000000E-02
  2 12615 1.93382781E+03 1.00000000E-02
  2 13778 1.93624144E+03 1.00000000E-02
  2 14092 1.82209062E+03 1.00000000E-02
  1 14428 1.82003887E+03 1.00000000E-02
  1 14429 1.82004548E+03 1.00000000E-02
  2 15110 1.93805996E+03 1.00000000E-02
  2 16463 1.93611811E+03 1.00000000E-02
  1 16642 1.82003262E+03 1.00000000E-02
  1 16842 1.82467434E+03 1.00000000E-02
  1 17092 1.81905409E+03 1.00000000E-02
  2 17204 1.93874834E+03 1.00000000E-02
  2 17716 1.83127255E+03 1.00000000E-02
  2 18439 1.94068292E+03 1.00000000E-02
  2 19078 1.83832397E+03 1.00000000E-02
  2 19590 1.94177636E+03 1.00000000E-02
  1 19697 1.93885961E+03 1.00000000E-02
  2 19863 1.83528995E+03 1.00000000E-02
  2 19933 1.84177097E+03 1.00000000E-02
  1 21301 1.94358183E+03 1.00000000E-02
  2 22231 1.84527757E+03 1.00000000E-02
  1 24413 1.94313414E+03 1.00000000E-02
  1 25022 1.94383004E+03 1.00000000E-02
  2 25546 1.84858614E+03 1.00000000E-02
  2 25635 1.94049381E+03 1.00000000E-02
  1 26922 1.94351437E+03 1.00000000E-02
  3 27439 1.85287571E+03 1.00000000E-02
  2 28215 1.95526437E+03 1.00000000E-02
  3 28450 1.85694126E+03 1.00000000E-02
  2 29060 1.96299829E+03 1.00000000E-02
  3 29322 1.85966475E+03 1.00000000E-02
  2 30029 1.96995442E+03 1.00000000E-02
  3 30303 1.86226897E+03 1.00000000E-02
  2 31029 1.97421859E+03 1.00000000E-02
  3 31292 1.86486849E+03 1.00000000E-02
  3 31961 1.97936419E+03 1.00000000E-02
  3 32127 1.86742927E+03 1.00000000E-02
  3 32548 1.98362330E+03 1.00000000E-02
  3 32713 1.86986527E+03 1.00000000E-02
  3 33107 1.98795444E+03 1.00000000E-02
  3 33264 1.87223125E+03 1.00000000E-02
  3 33583 1.99198233E+03 1.00000000E-02
  3 33667 1.87454247E+03 1.00000000E-02
  3 33915 1.99601022E+03 1.00000000E-02
  3 33992 1.87685370E+03 1.00000000E-02
  3 34212 2.00003811E+03 1.00000000E-02
  3 34300 1.87908204E+03 1.00000000E-02
  3 34394 2.00350839E+03 1.00000000E-02
  3 34406 1.88109730E+03 1.00000000E-02
  3 34426 2.00696962E+03 1.00000000E-02
  2 34433 1.88303617E+03 1.00000000E-02
  3 34476 2.01043084E+03 1.00000000E-02
  3 34505 2.01390809E+03 1.00000000E-02
  2 34520 1.88488844E+03 1.00000000E-02
  3 34537 2.01746611E+03 1.00000000E-02
  2 34545 1.88674071E+03 1.00000000E-02
  2 34547 1.88835412E+03 1.00000000E-02
  2 34571 2.02054692E+03 1.00000000E-02
  3 34606 2.02362773E+03 1.00000000E-02
  2 34614 1.88999867E+03 1.00000000E-02
  3 34641 2.02670854E+03 1.00000000E-02
  2 34651 1.89214133E+03 1.00000000E-02
  3 34669 2.02982088E+03 1.00000000E-02
  2 34680 1.89428399E+03 1.00000000E-02
  2 34686 1.89634091E+03 1.00000000E-02
  3 34704 2.03317424E+03 1.00000000E-02
  3 34752 2.03613297E+03 1.00000000E-02
  2 34764 1.89793565E+03 1.00000000E-02
  3 34790 2.03887753E+03 1.00000000E-02
  2 34799 1.89860522E+03 1.00000000E-02
  2 34815 2.04162004E+03 1.00000000E-02
  2 34822 1.89927479E+03 1.00000000E-02
  2 34829 1.89993156E+03 1.00000000E-02
  2 34845 2.04436255E+03 1.00000000E-02
  3 34881 2.04709712E+03 1.00000000E-02
  2 34894 1.90064897E+03 1.00000000E-02
  3 34908 2.04967884E+03 1.00000000E-02
  1 34910 1.90215698E+03 1.00000000E-02
  3 34926 2.05226057E+03 1.00000000E-02
  1 34929 1.90312332E+03 1.00000000E-02
  2 34930 1.90408966E+03 1.00000000E-02
  2 34943 2.05484229E+03 1.00000000E-02
  3 34977 2.05744035E+03 1.00000000E-02
  1 34985 1.90505600E+03 1.00000000E-02
  3 34999 2.06017800E+03 1.00000000E-02
  2 35005 1.90654231E+03 1.00000000E-02
  3 35013 2.06301368E+03 1.00000000E-02
  2 35022 1.90808398E+03 1.00000000E-02
  2 35024 1.90966034E+03 1.00000000E-02
  3 35034 2.06584937E+03 1.00000000E-02
  3 35063 2.06868506E+03 1.00000000E-02
  2 35070 1.91123671E+03 1.00000000E-02
  3 35084 2.07147001E+03 1.00000000E-02
  1 35089 1.91281307E+03 1.00000000E-02
  3 35098 2.07385288E+03 1.00000000E-02
  2 35102 1.91434476E+03 1.00000000E-02
  2 35105 1.91587444E+03 1.00000000E-02
  3 35117 2.07650579E+03 1.00000000E-02
  3 35152 2.07856010E+03 1.00000000E-02
  1 35154 1.91740723E+03 1.00000000E-02
  3 35172 2.08060935E+03 1.00000000E-02
  1 35175 1.91874675E+03 1.00000000E-02
  2 35193 2.08265859E+03 1.00000000E-02
  1 35201 1.91993696E+03 1.00000000E-02
  1 35204 1.92112716E+03 1.00000000E-02
  2 35218 2.08473090E+03 1.00000000E-02
  3 35254 2.08723713E+03 1.00000000E-02
  1 35263 1.92237034E+03 1.00000000E-02
  3 35286 2.08972237E+03 1.00000000E-02
  2 35296 1.92377201E+03 1.00000000E-02
  3 35322 2.09220744E+03 1.00000000E-02
  2 35333 1.92517369E+03 1.00000000E-02
  3 35358 2.09479192E+03 1.00000000E-02
  2 35362 1.92657536E+03 1.00000000E-02
  3 35444 2.09726540E+03 1.00000000E-02
  2 35457 1.92930283E+03 1.00000000E-02
  3 35473 2.09962668E+03 1.00000000E-02
  1 35481 1.99557803E+03 1.00000000E-02
  1 35485 1.93172452E+03 1.00000000E-02
  1 35495 1.98610471E+03 1.00000000E-02
  2 35500 1.97996172E+03 1.00000000E-02
  3 35505 2.10142957E+03 1.00000000E-02
  1 35514 1.93346381E+03 1.00000000E-02
  2 35516 1.93759697E+03 1.00000000E-02
  2 35518 1.93720571E+03 1.00000000E-02
  2 35519 1.93727278E+03 1.00000000E-02
  2 35521 1.93730220E+03 1.00000000E-02
  2 35524 1.93790353E+03 1.00000000E-02
  2 35525 1.93795215E+03 1.00000000E-02
  2 35527 1.93668140E+03 1.00000000E-02
  2 35529 1.93534581E+03 1.00000000E-02
  2 35531 1.93459484E+03 1.00000000E-02
  1 35532 1.93421531E+03 1.00000000E-02
  1 35535 1.93278255E+03 1.00000000E-02
  1 35537 1.93502034E+03 1.00000000E-02
  1 35538 1.93132607E+03 1.00000000E-02
  1 35541 1.93108576E+03 1.00000000E-02
  1 35543 1.93091565E+03 1.00000000E-02
  1 35546 1.93115269E+03 1.00000000E-02
  1 35548 1.93149921E+03 1.00000000E-02
  1 35550 1.93409082E+03 1.00000000E-02
  2 35551 1.93685991E+03 1.00000000E-02
  2 35554 1.93962900E+03 1.00000000E-02
  2 35556 1.94398989E+03 1.00000000E-02
  2 35558 1.94994132E+03 1.00000000E-02
  2 35559 1.95375601E+03 1.00000000E-02
  2 35561 1.96126067E+03 1.00000000E-02
  2 35562 1.96217674E+03 1.00000000E-02
  1 35563 1.96508944E+03 1.00000000E-02
  2 35565 1.96436077E+03 1.00000000E-02
  1 35567 1.96521417E+03 1.00000000E-02
  1 35569 1.96541850E+03 1.00000000E-02
  2 35571 1.96492582E+03 1.00000000E-02
  2 35572 1.96490627E+03 1.00000000E-02
  1 35574 1.96637162E+03 1.00000000E-02
  2 35576 1.96783696E+03 1.00000000E-02
  1 35577 1.97327699E+03 1.00000000E-02
  2 35580 1.97744808E+03 1.00000000E-02
  2 35581 1.97912018E+03 1.00000000E-02
  1 35583 1.97854298E+03 1.00000000E-02
  1 35585 1.97791943E+03 1.00000000E-02
  2 35587 1.97946034E+03 1.00000000E-02
  1 35588 1.98279767E+03 1.00000000E-02
  1 35589 1.97951967E+03 1.00000000E-02
  1 35590 1.97878507E+03 1.00000000E-02
  1 35591 1.98051268E+03 1.00000000E-02
  2 35593 2.00808748E+03 1.00000000E-02
  2 35595 2.02208989E+03 1.00000000E-02
  2 35596 2.00258114E+03 1.00000000E-02
  2 35597 2.03902128E+03 1.00000000E-02
  2 35598 2.03246393E+03 1.00000000E-02
  2 35602 2.06756145E+03 1.00000000E-02
  2 35604 2.06438726E+03 1.00000000E-02
  2 35606 2.05774043E+03 1.00000000E-02
  2 35607 2.06160200E+03 1.00000000E-02
  2 35609 2.07080168E+03 1.00000000E-02
  3 35611 2.07375631E+03 1.00000000E-02
  3 35613 2.07622507E+03 1.00000000E-02
  3 35615 2.07875653E+03 1.00000000E-02
  3 35616 2.08106127E+03 1.00000000E-02
  3 35617 2.08575332E+03 1.00000000E-02
  2 35619 2.08767808E+03 1.00000000E-02
  2 35620 2.08929211E+03 1.00000000E-02
  2 35621 2.09340054E+03 1.00000000E-02
  3 35622 2.10125095E+03 1.00000000E-02
  2 35623 1.93679730E+03 1.00000000E-02
  2 35625 2.03691888E+03 1.00000000E-02
  2 35626 1.96411064E+03 1.00000000E-02
  2 35627 1.95697082E+03 1.00000000E-02
  2 35628 2.09530701E+03 1.00000000E-02
  1 35629 1.98608097E+03 1.00000000E-02
  2 35630 2.05270680E+03 1.00000000E-02
  1 35631 1.98518969E+03 1.00000000E-02
  3 35632 2.09881075E+03 1.00000000E-02
  2 35633 2.09721348E+03 1.00000000E-02
  1 35634 1.98952511E+03 1.00000000E-02
  2 35635 1.96477269E+03 1.00000000E-02
  2 35636 2.01259281E+03 1.00000000E-02
  2 35637 1.93612272E+03 1.00000000E-02
  2 35638 1.96018564E+03 1.00000000E-02
  1 35639 1.98335123E+03 1.00000000E-02
  1 35640 1.98268348E+03 1.00000000E-02
  2 35641 1.95125923E+03 1.00000000E-02
  1 35642 1.99035536E+03 1.00000000E-02
  1 35643 2.01694755E+03 1.00000000E-02
  2 35644 1.98494532E+03 1.00000000E-02
  2 35645 2.05554653E+03 1.00000000E-02
  2 35646 2.04469946E+03 1.00000000E-02
  1 35647 1.93504139E+03 1.00000000E-02
  2 35650 1.93790540E+03 1.00000000E-02
  2 35652 1.93759720E+03 1.00000000E-02
  1 35653 1.93555127E+03 1.00000000E-02
  2 35654 1.93466391E+03 1.00000000E-02
  2 35655 1.94840487E+03 1.00000000E-02
  1 35656 1.93301205E+03 1.00000000E-02
  1 35657 1.93258455E+03 1.00000000E-02
  1 35658 1.93280347E+03 1.00000000E-02
  2 35660 1.96313184E+03 1.00000000E-02
  2 35661 1.96459262E+03 1.00000000E-02
  1 35662 1.96583573E+03 1.00000000E-02
  1 35664 1.97051348E+03 1.00000000E-02
  1 35665 1.97577599E+03 1.00000000E-02
  1 35666 1.97867416E+03 1.00000000E-02
  2 35667 1.97729297E+03 1.00000000E-02
  1 35668 1.97792480E+03 1.00000000E-02
  1 35669 1.98408318E+03 1.00000000E-02
  2 35670 1.98223267E+03 1.00000000E-02
  1 35671 1.98775354E+03 1.00000000E-02
  1 35672 1.98906126E+03 1.00000000E-02
  1 35673 1.99422877E+03 1.00000000E-02
  2 35674 1.99926811E+03 1.00000000E-02
  2 35675 2.02702515E+03 1.00000000E-02
  2 35677 2.04856660E+03 1.00000000E-02
  2 35678 2.05280820E+03 1.00000000E-02
  2 35679 2.06021415E+03 1.00000000E-02
  2 35680 2.05744307E+03 1.00000000E-02
  3 35681 2.08341241E+03 1.00000000E-02
  2 35683 2.09142127E+03 1.00000000E-02
  3 35684 2.10033877E+03 1.00000000E-02
END period  1

