# File generated by Flopy version 3.9.3 on 09/03/2025 at 10:28:32.
BEGIN options
  READASARRAYS
END options

BEGIN period  1
  recharge
    CONSTANT  6.34195840E-09
END period  1

