# File generated by Flopy version 3.9.3 on 09/03/2025 at 10:28:36.
BEGIN options
  DIGITS  10
  PRINT_INPUT
END options

BEGIN continuous  FILEOUT  mf6Model.drn.obs.csv
  drain_flow  drn  Drain
  pit_flow  drn  Pit
END continuous  FILEOUT  mf6Model.drn.obs.csv

