# File generated by Flopy version 3.9.3 on 07/10/2025 at 08:19:39.
BEGIN options
END options

BEGIN griddata
  iconvert
    CONSTANT  1
  ss
    CONSTANT  1.00000000E-05
  sy
    CONSTANT       0.15000000
END griddata

BEGIN period  1
  STEADY-STATE
END period  1

