# File generated by Flopy version 3.9.3 on 07/10/2025 at 08:19:39.
BEGIN options
  BUDGET  FILEOUT  mf6Model.cbc
  HEAD  FILEOUT  mf6Model.hds
END options

BEGIN period  1
  SAVE  HEAD  LAST
  SAVE  BUDGET  LAST
END period  1

