# File generated by Flopy version 3.9.3 on 07/10/2025 at 08:19:38.
BEGIN options
END options

BEGIN dimensions
  NLAY  5
  NCPL  8906
  NVERT  17378
END dimensions

BEGIN griddata
  top
    INTERNAL  FACTOR  1.0
      1920.00000000    1997.00000000    2277.00000000    1700.00000000    2309.00000000    1328.00000000    1894.00000000    2355.00000000    1619.00000000    2243.00000000    1475.00000000    1832.00000000    2414.00000000    1731.00000000    1728.00000000    2001.00000000    2022.00000000    1971.00000000    1641.00000000    1997.00000000
      2382.00000000    2003.00000000    2084.00000000    1811.00000000    2322.00000000    1607.00000000    2311.00000000    1294.00000000    2211.00000000    1573.00000000    1677.00000000    1911.00000000    1134.00000000     441.00000000    2224.00000000    1982.00000000    1977.00000000    1468.00000000    1908.00000000    1722.00000000
      1325.00000000    1814.00000000    1549.00000000    1683.00000000     435.00000000     426.00000000    1074.00000000    1337.00000000    1198.00000000    1509.00000000    1545.00000000    1152.00000000     441.00000000    1263.00000000     447.00000000     438.00000000     905.00000000    1357.00000000     510.00000000     531.00000000
       572.00000000     527.00000000    1742.00000000    1811.00000000     502.00000000     456.00000000    1542.00000000     828.00000000    1400.00000000     474.00000000     435.00000000    1326.00000000     489.00000000     426.00000000    1066.00000000     429.00000000     995.00000000     441.00000000     425.00000000     424.00000000
       417.00000000     429.00000000    1365.00000000    1163.00000000     452.00000000     427.00000000    1589.00000000     434.00000000     432.00000000    2134.00000000     447.00000000    1847.00000000    1679.00000000     449.00000000     462.00000000    1501.00000000    1771.00000000     442.00000000     448.00000000    1725.00000000
       462.00000000     451.00000000     449.00000000    2029.00000000    1146.00000000    2200.00000000     445.00000000     501.00000000     461.00000000    1495.00000000    1703.00000000    1402.00000000    1488.00000000    1467.00000000    1426.00000000    1467.00000000    1438.00000000    1592.00000000    1435.00000000    1571.00000000
      1297.00000000    1182.00000000    1274.00000000    1281.00000000    1158.00000000    1631.00000000    1199.00000000    1522.00000000    1350.00000000    1518.00000000    1085.00000000    1248.00000000    1434.00000000    1247.00000000    1329.00000000    1344.00000000     964.00000000     580.00000000     566.00000000    1095.00000000
       549.00000000    1255.00000000     932.00000000     626.00000000     832.00000000    1221.00000000     455.00000000     471.00000000     675.00000000     612.00000000    1268.00000000     624.00000000     557.00000000     600.00000000    1362.00000000     505.00000000     510.00000000     449.00000000     805.00000000     751.00000000
       720.00000000     677.00000000     568.00000000     677.00000000     424.00000000     445.00000000     520.00000000     563.00000000     705.00000000     435.00000000     431.00000000     495.00000000     511.00000000     439.00000000     443.00000000     450.00000000     439.00000000     604.00000000     436.00000000     433.00000000
       511.00000000    1869.00000000    1216.00000000     449.00000000     444.00000000     464.00000000     552.00000000     461.00000000    1834.00000000     607.00000000     510.00000000     454.00000000     456.00000000     458.00000000    2034.00000000     460.00000000     434.00000000     606.00000000    2439.00000000     478.00000000
       565.00000000     497.00000000     580.00000000     543.00000000     444.00000000     663.00000000     617.00000000     471.00000000     438.00000000     461.00000000     605.00000000     508.00000000     563.00000000     435.00000000     608.00000000     551.00000000    2591.00000000     635.00000000     461.00000000     536.00000000
       451.00000000     536.00000000     431.00000000     495.00000000     451.00000000     594.00000000     515.00000000     458.00000000     502.00000000     443.00000000     513.00000000     460.00000000     440.00000000     511.00000000     633.00000000     557.00000000     487.00000000     429.00000000     459.00000000     536.00000000
       613.00000000    2713.00000000     465.00000000     422.00000000     463.00000000     442.00000000     485.00000000     429.00000000     448.00000000     484.00000000     550.00000000    2616.00000000     501.00000000    2652.00000000     586.00000000     488.00000000    1849.00000000    2502.00000000    2444.00000000    2209.00000000
      1444.00000000     482.00000000     474.00000000    1454.00000000    1423.00000000    1635.00000000    1576.00000000    1250.00000000     490.00000000     490.00000000    1302.00000000    1460.00000000    1106.00000000     533.00000000     553.00000000    1126.00000000    1130.00000000    1230.00000000    1180.00000000     977.00000000
       564.00000000     490.00000000     995.00000000     913.00000000    1373.00000000     530.00000000     484.00000000     600.00000000     631.00000000     984.00000000    1213.00000000     989.00000000    1044.00000000    1187.00000000    1029.00000000     846.00000000     873.00000000     702.00000000    1040.00000000     490.00000000
       484.00000000     484.00000000     857.00000000     717.00000000     951.00000000     666.00000000     507.00000000     514.00000000    1142.00000000    1377.00000000     523.00000000     525.00000000     535.00000000     508.00000000     591.00000000     484.00000000     501.00000000     455.00000000     438.00000000     438.00000000
       449.00000000     456.00000000     496.00000000     453.00000000     805.00000000     623.00000000     465.00000000     447.00000000     499.00000000     546.00000000     606.00000000     510.00000000     482.00000000     470.00000000     471.00000000     476.00000000     481.00000000     615.00000000     473.00000000    1010.00000000
       438.00000000     435.00000000     548.00000000     462.00000000     531.00000000     451.00000000     422.00000000     504.00000000    1063.00000000     478.00000000     428.00000000     501.00000000     629.00000000     461.00000000     463.00000000     505.00000000     461.00000000     462.00000000     497.00000000     446.00000000
       478.00000000     521.00000000    1113.00000000     483.00000000     490.00000000    1144.00000000     568.00000000     487.00000000     439.00000000     487.00000000     500.00000000     467.00000000     526.00000000     443.00000000    1269.00000000    1300.00000000     425.00000000     475.00000000     459.00000000     456.00000000
       436.00000000     494.00000000     462.00000000     530.00000000     487.00000000     594.00000000     463.00000000     488.00000000     443.00000000     439.00000000     605.00000000     570.00000000     556.00000000     496.00000000     471.00000000     484.00000000    1287.00000000     484.00000000     471.00000000     453.00000000
       471.00000000     491.00000000     523.00000000     484.00000000    1739.00000000    2311.00000000     548.00000000     440.00000000     527.00000000     515.00000000     443.00000000     467.00000000     533.00000000     493.00000000     472.00000000     463.00000000     566.00000000     455.00000000     438.00000000     479.00000000
       487.00000000    2493.00000000     482.00000000     449.00000000     479.00000000     486.00000000     500.00000000     468.00000000     472.00000000     480.00000000     547.00000000     473.00000000     494.00000000     476.00000000     469.00000000     498.00000000     465.00000000     550.00000000     488.00000000     470.00000000
      2383.00000000     483.00000000     461.00000000     508.00000000     469.00000000     515.00000000     524.00000000     484.00000000     497.00000000     437.00000000     485.00000000     472.00000000     484.00000000    2323.00000000     460.00000000     449.00000000     492.00000000     567.00000000     638.00000000     591.00000000
       501.00000000     465.00000000     494.00000000     514.00000000     516.00000000     486.00000000     536.00000000     466.00000000     478.00000000     557.00000000     469.00000000     523.00000000     481.00000000    2549.00000000     496.00000000    2462.00000000     446.00000000     496.00000000     501.00000000     455.00000000
       530.00000000     508.00000000     577.00000000    2574.00000000     492.00000000     504.00000000     498.00000000     494.00000000     469.00000000     499.00000000     553.00000000     489.00000000     473.00000000     577.00000000     447.00000000     518.00000000     567.00000000     517.00000000     492.00000000     504.00000000
       523.00000000     450.00000000     478.00000000     474.00000000     465.00000000     472.00000000     605.00000000     553.00000000     520.00000000     570.00000000     606.00000000     484.00000000     520.00000000     537.00000000     480.00000000     466.00000000     485.00000000     489.00000000     527.00000000    1930.00000000
      2219.00000000    2284.00000000    1498.00000000    2003.00000000     537.00000000     556.00000000    2463.00000000    1415.00000000    2139.00000000    1759.00000000    1443.00000000    1487.00000000    1285.00000000     550.00000000     552.00000000     577.00000000    1295.00000000    1201.00000000    1203.00000000    1093.00000000
      1088.00000000    1247.00000000     578.00000000     593.00000000     550.00000000     556.00000000    1340.00000000    1270.00000000    1001.00000000     615.00000000     568.00000000     565.00000000     509.00000000     550.00000000    1093.00000000    1130.00000000    1005.00000000     549.00000000     691.00000000     974.00000000
      1065.00000000     997.00000000     903.00000000     970.00000000     576.00000000     821.00000000     943.00000000     802.00000000    1030.00000000     571.00000000     563.00000000     637.00000000     569.00000000     576.00000000     978.00000000     592.00000000     621.00000000     669.00000000     667.00000000     618.00000000
       508.00000000     522.00000000     445.00000000     495.00000000     503.00000000     469.00000000     584.00000000     516.00000000     495.00000000     457.00000000     517.00000000     474.00000000     547.00000000     564.00000000     456.00000000     460.00000000     471.00000000     530.00000000     544.00000000     508.00000000
       504.00000000     489.00000000     519.00000000     452.00000000    1008.00000000     449.00000000     466.00000000     476.00000000     443.00000000     465.00000000     487.00000000     479.00000000     547.00000000     633.00000000     836.00000000    1001.00000000     447.00000000     457.00000000     641.00000000    1066.00000000
       521.00000000     502.00000000     462.00000000     547.00000000     528.00000000     569.00000000     631.00000000     498.00000000     454.00000000     460.00000000     549.00000000     479.00000000     498.00000000     546.00000000     456.00000000     464.00000000     482.00000000     519.00000000     490.00000000     564.00000000
       533.00000000     547.00000000     478.00000000     469.00000000     453.00000000     634.00000000     530.00000000     488.00000000     488.00000000    1369.00000000     540.00000000     540.00000000     507.00000000     489.00000000     513.00000000     557.00000000     525.00000000    1231.00000000     467.00000000     464.00000000
       665.00000000     541.00000000     465.00000000     497.00000000     605.00000000     502.00000000    1173.00000000    1383.00000000     497.00000000     515.00000000     509.00000000     531.00000000     463.00000000     697.00000000     451.00000000     462.00000000     537.00000000     553.00000000     483.00000000     479.00000000
       498.00000000     502.00000000     504.00000000     524.00000000    1945.00000000     516.00000000     458.00000000     542.00000000     450.00000000     532.00000000     475.00000000     486.00000000     462.00000000     456.00000000     536.00000000     499.00000000    2363.00000000     508.00000000     582.00000000     718.00000000
       503.00000000     531.00000000     475.00000000     501.00000000     468.00000000     462.00000000     532.00000000    2166.00000000     480.00000000     506.00000000     521.00000000     506.00000000     442.00000000     492.00000000     506.00000000     544.00000000     503.00000000     477.00000000     485.00000000     490.00000000
       592.00000000     726.00000000     469.00000000     617.00000000     534.00000000     523.00000000     498.00000000     457.00000000     503.00000000     742.00000000    2578.00000000     540.00000000     452.00000000     474.00000000     465.00000000     461.00000000     508.00000000     512.00000000     506.00000000     547.00000000
       640.00000000     502.00000000     516.00000000     521.00000000     537.00000000     452.00000000     524.00000000     514.00000000     497.00000000    2705.00000000     485.00000000     504.00000000     475.00000000     512.00000000     485.00000000     493.00000000     461.00000000     513.00000000     496.00000000    2665.00000000
       469.00000000     503.00000000     473.00000000     722.00000000     518.00000000     527.00000000     771.00000000     467.00000000     547.00000000     471.00000000     490.00000000     521.00000000     541.00000000     497.00000000     498.00000000     481.00000000     491.00000000     527.00000000     475.00000000     487.00000000
       481.00000000     508.00000000     490.00000000     509.00000000     538.00000000     459.00000000     517.00000000     714.00000000     524.00000000     498.00000000    2560.00000000    2715.00000000     515.00000000     497.00000000     543.00000000     505.00000000     514.00000000     496.00000000     501.00000000     462.00000000
       618.00000000     528.00000000    2676.00000000    2650.00000000    1521.00000000    1484.00000000    1719.00000000    1438.00000000    1228.00000000    1165.00000000    1680.00000000    1140.00000000    1098.00000000    1430.00000000    1353.00000000    1231.00000000    1079.00000000    1370.00000000    1257.00000000    1510.00000000
      1255.00000000    1254.00000000    1004.00000000    1331.00000000    1097.00000000    1397.00000000    1185.00000000    1358.00000000    1243.00000000    1266.00000000    1306.00000000     964.00000000    1176.00000000    1107.00000000    1178.00000000     511.00000000     527.00000000    1067.00000000    1034.00000000     540.00000000
       516.00000000     523.00000000     906.00000000     777.00000000     821.00000000     568.00000000     506.00000000     991.00000000     573.00000000     550.00000000     870.00000000     547.00000000     605.00000000     522.00000000     522.00000000     601.00000000     596.00000000     593.00000000     568.00000000     520.00000000
       519.00000000     463.00000000     536.00000000     482.00000000     506.00000000     480.00000000     527.00000000     449.00000000     496.00000000     514.00000000     484.00000000     476.00000000     503.00000000    1619.00000000     517.00000000     968.00000000     538.00000000     555.00000000     539.00000000     520.00000000
       476.00000000     541.00000000     566.00000000     538.00000000     805.00000000     597.00000000     515.00000000     515.00000000     912.00000000     740.00000000     499.00000000     508.00000000     447.00000000    1618.00000000     717.00000000     567.00000000     485.00000000     547.00000000     559.00000000     808.00000000
       487.00000000     524.00000000     524.00000000     570.00000000     542.00000000     480.00000000     471.00000000     531.00000000    2113.00000000    1242.00000000     472.00000000     489.00000000     625.00000000    1129.00000000     475.00000000     483.00000000    2135.00000000     841.00000000     455.00000000     531.00000000
       571.00000000     596.00000000     748.00000000     498.00000000     458.00000000     505.00000000     514.00000000     550.00000000     869.00000000     468.00000000     542.00000000     678.00000000     514.00000000     601.00000000     557.00000000    1427.00000000    1442.00000000    2045.00000000    1293.00000000     513.00000000
       835.00000000     638.00000000     494.00000000    1161.00000000     521.00000000     554.00000000     480.00000000    1033.00000000     942.00000000     461.00000000     649.00000000     526.00000000    1240.00000000     472.00000000     476.00000000     470.00000000    1132.00000000    2085.00000000    1298.00000000     539.00000000
       633.00000000     527.00000000     604.00000000     521.00000000    1291.00000000     522.00000000    2331.00000000     915.00000000     542.00000000     625.00000000     522.00000000     469.00000000     661.00000000     669.00000000     534.00000000    1223.00000000    1089.00000000     666.00000000     882.00000000    2467.00000000
      2393.00000000     869.00000000     530.00000000     480.00000000     658.00000000     545.00000000    1364.00000000    1128.00000000     965.00000000     794.00000000     754.00000000    1215.00000000    1079.00000000     902.00000000     776.00000000    1329.00000000     801.00000000     564.00000000    1296.00000000     615.00000000
      1184.00000000     741.00000000     523.00000000     670.00000000    1099.00000000     474.00000000     567.00000000     459.00000000    1192.00000000     670.00000000     512.00000000     736.00000000     682.00000000    1152.00000000    1047.00000000    1187.00000000     557.00000000     802.00000000    1142.00000000     469.00000000
       667.00000000    1091.00000000    1240.00000000     664.00000000    1263.00000000    2485.00000000    1277.00000000     521.00000000     527.00000000     723.00000000     846.00000000     720.00000000    2550.00000000    1469.00000000    1116.00000000    1038.00000000     576.00000000     974.00000000     904.00000000    1145.00000000
      1061.00000000     883.00000000     983.00000000     532.00000000     492.00000000     744.00000000     520.00000000     524.00000000     684.00000000     460.00000000     865.00000000     767.00000000     460.00000000     755.00000000     709.00000000    1232.00000000    1031.00000000    1229.00000000     543.00000000     637.00000000
      1049.00000000    1103.00000000    1012.00000000     751.00000000     713.00000000    1111.00000000    1230.00000000    1363.00000000     581.00000000     477.00000000     560.00000000     453.00000000     728.00000000     973.00000000    1170.00000000     983.00000000     526.00000000    1285.00000000    1026.00000000    1172.00000000
       692.00000000     727.00000000     884.00000000     486.00000000     639.00000000     484.00000000     836.00000000    1029.00000000     763.00000000    1076.00000000     786.00000000     739.00000000     749.00000000    1240.00000000    1190.00000000    1183.00000000    1041.00000000     576.00000000    1338.00000000    2618.00000000
      1007.00000000     761.00000000     691.00000000    1233.00000000    1007.00000000    1134.00000000     551.00000000     857.00000000     694.00000000     926.00000000     521.00000000    1022.00000000    1051.00000000    1016.00000000     961.00000000     573.00000000    1041.00000000    1465.00000000    2706.00000000    1482.00000000
      1583.00000000    2010.00000000    1930.00000000    1825.00000000    1760.00000000    1952.00000000    1745.00000000    1517.00000000    1472.00000000    1624.00000000    1492.00000000    1330.00000000    1197.00000000    1213.00000000     989.00000000    1059.00000000    1150.00000000    1076.00000000    1051.00000000     789.00000000
       714.00000000    1200.00000000     777.00000000     775.00000000     879.00000000     868.00000000     878.00000000     968.00000000     785.00000000     741.00000000     669.00000000     581.00000000     595.00000000     746.00000000     542.00000000     505.00000000     546.00000000     471.00000000     597.00000000     492.00000000
       489.00000000     799.00000000     692.00000000     607.00000000     516.00000000     920.00000000     661.00000000    1097.00000000    1185.00000000     845.00000000     656.00000000     755.00000000    1169.00000000     558.00000000    1141.00000000     615.00000000     831.00000000     654.00000000    1048.00000000    1011.00000000
       698.00000000     749.00000000     818.00000000    1026.00000000     838.00000000    1031.00000000     798.00000000    1915.00000000    1420.00000000    1421.00000000     612.00000000     772.00000000     702.00000000    1102.00000000     570.00000000     512.00000000     611.00000000     483.00000000    1141.00000000    1080.00000000
       784.00000000     651.00000000     539.00000000     728.00000000     660.00000000    1092.00000000     668.00000000     575.00000000     554.00000000    1132.00000000     910.00000000    1074.00000000    1389.00000000    1066.00000000     984.00000000    1140.00000000    1187.00000000    1414.00000000    1775.00000000    1272.00000000
      1250.00000000    1086.00000000    1113.00000000    1256.00000000     673.00000000     730.00000000    1134.00000000     979.00000000    1178.00000000    1107.00000000    1010.00000000     462.00000000    1076.00000000     863.00000000     497.00000000    1022.00000000    1413.00000000     702.00000000     610.00000000     562.00000000
       572.00000000     513.00000000     664.00000000     799.00000000     522.00000000     496.00000000     615.00000000     761.00000000     919.00000000     943.00000000     672.00000000     754.00000000     663.00000000     675.00000000    1180.00000000    1093.00000000     947.00000000    1041.00000000    1085.00000000     703.00000000
       461.00000000    1262.00000000    1150.00000000     825.00000000     975.00000000     712.00000000     799.00000000     592.00000000     827.00000000     604.00000000     465.00000000     879.00000000     697.00000000     888.00000000    1013.00000000     994.00000000    1092.00000000    1014.00000000    1011.00000000     787.00000000
       663.00000000     660.00000000     543.00000000    1068.00000000    1082.00000000    1139.00000000    1056.00000000    1135.00000000    1163.00000000    1721.00000000     465.00000000     676.00000000    1051.00000000     973.00000000    1062.00000000    1068.00000000     851.00000000     752.00000000     762.00000000     578.00000000
       661.00000000    1324.00000000     547.00000000     530.00000000     648.00000000     637.00000000     667.00000000     706.00000000     756.00000000     613.00000000     565.00000000    1197.00000000    1137.00000000    1139.00000000     540.00000000     771.00000000     953.00000000    1367.00000000    1055.00000000     945.00000000
      1030.00000000     963.00000000     589.00000000     631.00000000    1756.00000000    1337.00000000    1794.00000000     535.00000000     669.00000000     465.00000000     493.00000000     464.00000000     608.00000000    1104.00000000     899.00000000    1321.00000000    1016.00000000     733.00000000     669.00000000    1499.00000000
      1521.00000000     617.00000000    1198.00000000     648.00000000     594.00000000     986.00000000     903.00000000    1107.00000000    1033.00000000     540.00000000     680.00000000    1068.00000000    1189.00000000    1046.00000000     934.00000000    1116.00000000    1028.00000000     909.00000000    1205.00000000     897.00000000
       666.00000000    1014.00000000     612.00000000     647.00000000     611.00000000     775.00000000     551.00000000     618.00000000     933.00000000    1058.00000000    1139.00000000     738.00000000     515.00000000     466.00000000     479.00000000     579.00000000     802.00000000     577.00000000     648.00000000     865.00000000
       680.00000000     998.00000000     554.00000000     596.00000000     754.00000000     630.00000000     790.00000000     706.00000000     607.00000000     545.00000000    1076.00000000     598.00000000     647.00000000     889.00000000     693.00000000    1334.00000000    1725.00000000     685.00000000     577.00000000     625.00000000
       904.00000000     974.00000000     985.00000000    1075.00000000     547.00000000     616.00000000     601.00000000     674.00000000     968.00000000    1056.00000000     786.00000000     727.00000000     828.00000000     536.00000000    1405.00000000    1763.00000000     680.00000000     779.00000000     471.00000000     741.00000000
      1037.00000000     929.00000000     906.00000000    1145.00000000     558.00000000     622.00000000     736.00000000     572.00000000     575.00000000    1261.00000000    1418.00000000     994.00000000     525.00000000     589.00000000     535.00000000     524.00000000     709.00000000    1258.00000000    1232.00000000    1145.00000000
      1347.00000000     487.00000000     608.00000000     536.00000000     592.00000000     667.00000000     906.00000000     762.00000000     537.00000000     540.00000000    1551.00000000    1095.00000000    1599.00000000    1208.00000000    1076.00000000    1069.00000000    1111.00000000     942.00000000     971.00000000     912.00000000
       908.00000000     552.00000000    1260.00000000    1076.00000000    1221.00000000     639.00000000    1016.00000000     719.00000000     668.00000000     968.00000000     951.00000000    1070.00000000     961.00000000     993.00000000     947.00000000    1092.00000000    1371.00000000    1892.00000000     868.00000000     960.00000000
      1068.00000000    1216.00000000     476.00000000     637.00000000     973.00000000     541.00000000     768.00000000     910.00000000     525.00000000     608.00000000     632.00000000     611.00000000     619.00000000     556.00000000     935.00000000     474.00000000     614.00000000     600.00000000     608.00000000     585.00000000
       656.00000000     633.00000000     547.00000000     535.00000000     662.00000000     471.00000000     646.00000000     664.00000000     784.00000000     675.00000000     587.00000000     549.00000000     617.00000000     545.00000000     550.00000000     798.00000000     810.00000000     653.00000000     567.00000000     674.00000000
      1212.00000000     569.00000000     839.00000000    1226.00000000     773.00000000     917.00000000     984.00000000     997.00000000     590.00000000     594.00000000     896.00000000    1080.00000000    1586.00000000     821.00000000     625.00000000    1041.00000000     927.00000000     684.00000000     553.00000000     520.00000000
       587.00000000    1121.00000000     939.00000000    1207.00000000    1200.00000000     575.00000000     480.00000000     581.00000000     855.00000000     535.00000000     646.00000000     906.00000000     737.00000000     679.00000000     556.00000000     994.00000000     545.00000000     977.00000000    1034.00000000     963.00000000
      1101.00000000     575.00000000     559.00000000    1078.00000000     962.00000000     946.00000000     698.00000000    1012.00000000     556.00000000     592.00000000     580.00000000     764.00000000     647.00000000     610.00000000     934.00000000    1121.00000000     976.00000000     911.00000000     587.00000000    1005.00000000
       985.00000000     907.00000000     552.00000000     563.00000000     591.00000000     575.00000000     562.00000000     971.00000000     688.00000000     727.00000000     464.00000000     508.00000000     581.00000000     879.00000000     510.00000000     674.00000000    1184.00000000     640.00000000     579.00000000     660.00000000
       543.00000000    1123.00000000    1093.00000000    1190.00000000    1141.00000000     568.00000000    1096.00000000    1214.00000000    2246.00000000    1485.00000000    1101.00000000    1122.00000000     992.00000000     557.00000000    1057.00000000     644.00000000     604.00000000    1040.00000000     990.00000000     938.00000000
       552.00000000     569.00000000     549.00000000     962.00000000    1074.00000000     664.00000000     746.00000000    2406.00000000    1161.00000000    1037.00000000    1574.00000000     996.00000000     916.00000000    2526.00000000     515.00000000     615.00000000     777.00000000    1138.00000000     914.00000000    1200.00000000
      1223.00000000     626.00000000     940.00000000     943.00000000    1426.00000000     614.00000000     576.00000000     967.00000000     708.00000000     642.00000000     705.00000000     571.00000000     547.00000000     720.00000000    1496.00000000    1275.00000000    1450.00000000     947.00000000     558.00000000     553.00000000
       480.00000000    1124.00000000     591.00000000     605.00000000     600.00000000     552.00000000     677.00000000    1081.00000000     919.00000000    1008.00000000    1034.00000000     724.00000000     556.00000000     563.00000000     665.00000000     534.00000000    1045.00000000    1079.00000000     897.00000000     568.00000000
      1189.00000000     940.00000000    1078.00000000     578.00000000     665.00000000     645.00000000     587.00000000     563.00000000     558.00000000     974.00000000     912.00000000    1137.00000000     784.00000000     670.00000000    1167.00000000     647.00000000     944.00000000     501.00000000     563.00000000     464.00000000
       553.00000000     630.00000000     634.00000000     905.00000000     934.00000000     549.00000000     560.00000000     966.00000000    1059.00000000     795.00000000     698.00000000     650.00000000     636.00000000     683.00000000     579.00000000     562.00000000     497.00000000     552.00000000     581.00000000    1082.00000000