# File generated by Flopy version 3.9.3 on 07/10/2025 at 08:19:38.
BEGIN options
  COMPLEXITY  complex
END options

BEGIN nonlinear
  OUTER_MAXIMUM  50
END nonlinear

BEGIN linear
  INNER_MAXIMUM  30
  LINEAR_ACCELERATION  bicgstab
END linear

