# File generated by Flopy version 3.9.3 on 07/10/2025 at 08:19:39.
BEGIN options
END options

BEGIN dimensions
  MAXBOUND  927
END dimensions

BEGIN period  1
  1 46 4.26000000E+02 1.00000000E-02
  1 74 4.26000000E+02 1.00000000E-02
  1 79 4.25000000E+02 1.00000000E-02
  1 80 4.24000000E+02 1.00000000E-02
  1 81 4.17000000E+02 1.00000000E-02
  1 98 4.42000000E+02 1.00000000E-02
  1 103 4.49000000E+02 1.00000000E-02
  1 158 4.49000000E+02 1.00000000E-02
  1 176 4.50000000E+02 1.00000000E-02
  1 177 4.39000000E+02 1.00000000E-02
  1 179 4.36000000E+02 1.00000000E-02
  1 197 4.34000000E+02 1.00000000E-02
  1 209 4.38000000E+02 1.00000000E-02
  1 223 4.31000000E+02 1.00000000E-02
  1 238 4.29000000E+02 1.00000000E-02
  1 244 4.22000000E+02 1.00000000E-02
  1 248 4.29000000E+02 1.00000000E-02
  1 282 4.90000000E+02 1.00000000E-02
  1 320 4.38000000E+02 1.00000000E-02
  1 341 4.38000000E+02 1.00000000E-02
  1 347 4.22000000E+02 1.00000000E-02
  1 357 4.61000000E+02 1.00000000E-02
  1 369 4.39000000E+02 1.00000000E-02
  1 372 4.67000000E+02 1.00000000E-02
  1 377 4.25000000E+02 1.00000000E-02
  1 378 4.75000000E+02 1.00000000E-02
  1 379 4.59000000E+02 1.00000000E-02
  1 389 4.43000000E+02 1.00000000E-02
  1 395 4.71000000E+02 1.00000000E-02
  1 398 4.84000000E+02 1.00000000E-02
  1 400 4.53000000E+02 1.00000000E-02
  1 404 4.84000000E+02 1.00000000E-02
  1 407 5.48000000E+02 1.00000000E-02
  1 414 4.93000000E+02 1.00000000E-02
  1 416 4.63000000E+02 1.00000000E-02
  1 419 4.38000000E+02 1.00000000E-02
  1 420 4.79000000E+02 1.00000000E-02
  1 428 4.68000000E+02 1.00000000E-02
  1 433 4.94000000E+02 1.00000000E-02
  1 434 4.76000000E+02 1.00000000E-02
  1 435 4.69000000E+02 1.00000000E-02
  1 437 4.65000000E+02 1.00000000E-02
  1 448 4.84000000E+02 1.00000000E-02
  1 450 4.37000000E+02 1.00000000E-02
  1 451 4.85000000E+02 1.00000000E-02
  1 453 4.84000000E+02 1.00000000E-02
  1 455 4.60000000E+02 1.00000000E-02
  1 466 4.86000000E+02 1.00000000E-02
  1 469 4.78000000E+02 1.00000000E-02
  1 471 4.69000000E+02 1.00000000E-02
  1 477 4.46000000E+02 1.00000000E-02
  1 504 4.74000000E+02 1.00000000E-02
  1 505 4.65000000E+02 1.00000000E-02
  1 583 4.45000000E+02 1.00000000E-02
  1 592 4.74000000E+02 1.00000000E-02
  1 597 4.71000000E+02 1.00000000E-02
  1 606 4.49000000E+02 1.00000000E-02
  1 609 4.43000000E+02 1.00000000E-02
  1 612 4.79000000E+02 1.00000000E-02
  1 617 4.47000000E+02 1.00000000E-02
  1 623 4.62000000E+02 1.00000000E-02
  1 629 4.54000000E+02 1.00000000E-02
  1 635 4.56000000E+02 1.00000000E-02
  1 643 4.78000000E+02 1.00000000E-02
  1 675 4.51000000E+02 1.00000000E-02
  1 681 4.98000000E+02 1.00000000E-02
  1 683 5.04000000E+02 1.00000000E-02
  1 689 4.50000000E+02 1.00000000E-02
  1 692 4.86000000E+02 1.00000000E-02
  1 698 5.08000000E+02 1.00000000E-02
  1 705 4.68000000E+02 1.00000000E-02
  1 714 4.92000000E+02 1.00000000E-02
  1 715 5.06000000E+02 1.00000000E-02
  1 717 5.03000000E+02 1.00000000E-02
  1 719 4.85000000E+02 1.00000000E-02
  1 720 4.90000000E+02 1.00000000E-02
  1 723 4.69000000E+02 1.00000000E-02
  1 735 4.65000000E+02 1.00000000E-02
  1 737 5.08000000E+02 1.00000000E-02
  1 748 5.14000000E+02 1.00000000E-02
  1 751 4.85000000E+02 1.00000000E-02
  1 753 4.75000000E+02 1.00000000E-02
  1 755 4.85000000E+02 1.00000000E-02
  1 757 4.61000000E+02 1.00000000E-02
  1 762 5.03000000E+02 1.00000000E-02
  1 771 4.90000000E+02 1.00000000E-02
  1 774 4.97000000E+02 1.00000000E-02
  1 776 4.81000000E+02 1.00000000E-02
  1 782 5.08000000E+02 1.00000000E-02
  1 790 4.98000000E+02 1.00000000E-02
  1 796 5.05000000E+02 1.00000000E-02
  1 797 5.14000000E+02 1.00000000E-02
  1 836 5.11000000E+02 1.00000000E-02
  1 854 5.22000000E+02 1.00000000E-02
  1 866 4.80000000E+02 1.00000000E-02
  1 868 4.49000000E+02 1.00000000E-02
  1 879 5.39000000E+02 1.00000000E-02
  1 887 5.15000000E+02 1.00000000E-02
  1 893 4.47000000E+02 1.00000000E-02
  1 903 5.24000000E+02 1.00000000E-02
  1 919 4.55000000E+02 1.00000000E-02
  1 950 4.61000000E+02 1.00000000E-02
  1 966 5.22000000E+02 1.00000000E-02
  1 1003 5.23000000E+02 1.00000000E-02
  1 1008 4.59000000E+02 1.00000000E-02
  1 1048 5.24000000E+02 1.00000000E-02
  1 1050 4.60000000E+02 1.00000000E-02
  1 1063 1.01200000E+03 1.00000000E-02
  1 1072 4.53000000E+02 1.00000000E-02
  1 1076 9.83000000E+02 1.00000000E-02
  1 1105 1.00700000E+03 1.00000000E-02
  1 1114 1.01600000E+03 1.00000000E-02
  1 1165 5.16000000E+02 1.00000000E-02
  1 1180 1.01100000E+03 1.00000000E-02
  1 1186 1.03100000E+03 1.00000000E-02
  1 1231 1.01000000E+03 1.00000000E-02
  1 1232 4.62000000E+02 1.00000000E-02
  1 1242 5.13000000E+02 1.00000000E-02
  1 1278 1.01400000E+03 1.00000000E-02
  1 1294 9.73000000E+02 1.00000000E-02
  1 1322 9.63000000E+02 1.00000000E-02
  1 1328 5.35000000E+02 1.00000000E-02
  1 1332 4.64000000E+02 1.00000000E-02
  1 1335 8.99000000E+02 1.00000000E-02
  1 1337 1.01600000E+03 1.00000000E-02
  1 1346 9.86000000E+02 1.00000000E-02
  1 1347 9.03000000E+02 1.00000000E-02
  1 1349 1.03300000E+03 1.00000000E-02
  1 1358 9.09000000E+02 1.00000000E-02
  1 1362 1.01400000E+03 1.00000000E-02
  1 1367 5.51000000E+02 1.00000000E-02
  1 1373 5.15000000E+02 1.00000000E-02
  1 1376 5.79000000E+02 1.00000000E-02
  1 1382 9.98000000E+02 1.00000000E-02
  1 1383 5.54000000E+02 1.00000000E-02
  1 1401 9.04000000E+02 1.00000000E-02
  1 1402 9.74000000E+02 1.00000000E-02
  1 1405 5.47000000E+02 1.00000000E-02
  1 1407 6.01000000E+02 1.00000000E-02
  1 1408 6.74000000E+02 1.00000000E-02
  1 1409 9.68000000E+02 1.00000000E-02
  1 1410 1.05600000E+03 1.00000000E-02
  1 1417 6.80000000E+02 1.00000000E-02
  1 1419 4.71000000E+02 1.00000000E-02
  1 1423 9.06000000E+02 1.00000000E-02
  1 1425 5.58000000E+02 1.00000000E-02
  1 1436 5.24000000E+02 1.00000000E-02
  1 1450 5.40000000E+02 1.00000000E-02
  1 1452 1.09500000E+03 1.00000000E-02
  1 1455 1.07600000E+03 1.00000000E-02
  1 1457 1.11100000E+03 1.00000000E-02
  1 1460 9.12000000E+02 1.00000000E-02
  1 1461 9.08000000E+02 1.00000000E-02
  1 1462 5.52000000E+02 1.00000000E-02
  1 1464 1.07600000E+03 1.00000000E-02
  1 1467 1.01600000E+03 1.00000000E-02
  1 1469 6.68000000E+02 1.00000000E-02
  1 1470 9.68000000E+02 1.00000000E-02
  1 1475 9.47000000E+02 1.00000000E-02
  1 1512 5.49000000E+02 1.00000000E-02
  1 1513 6.17000000E+02 1.00000000E-02
  1 1514 5.45000000E+02 1.00000000E-02
  1 1515 5.50000000E+02 1.00000000E-02
  1 1519 5.67000000E+02 1.00000000E-02
  1 1522 5.69000000E+02 1.00000000E-02
  1 1527 9.84000000E+02 1.00000000E-02
  1 1531 8.96000000E+02 1.00000000E-02
  1 1540 5.20000000E+02 1.00000000E-02
  1 1543 9.39000000E+02 1.00000000E-02
  1 1555 5.56000000E+02 1.00000000E-02
  1 1557 5.45000000E+02 1.00000000E-02
  1 1566 9.46000000E+02 1.00000000E-02
  1 1567 6.98000000E+02 1.00000000E-02
  1 1569 5.56000000E+02 1.00000000E-02
  1 1570 5.92000000E+02 1.00000000E-02
  1 1574 6.10000000E+02 1.00000000E-02
  1 1575 9.34000000E+02 1.00000000E-02
  1 1578 9.11000000E+02 1.00000000E-02
  1 1591 4.64000000E+02 1.00000000E-02
  1 1592 5.08000000E+02 1.00000000E-02
  1 1596 6.74000000E+02 1.00000000E-02
  1 1603 1.09300000E+03 1.00000000E-02
  1 1607 1.09600000E+03 1.00000000E-02
  1 1611 1.10100000E+03 1.00000000E-02
  1 1613 9.92000000E+02 1.00000000E-02
  1 1614 5.57000000E+02 1.00000000E-02
  1 1617 6.04000000E+02 1.00000000E-02
  1 1621 5.52000000E+02 1.00000000E-02
  1 1635 5.15000000E+02 1.00000000E-02
  1 1636 6.15000000E+02 1.00000000E-02
  1 1638 1.13800000E+03 1.00000000E-02
  1 1643 9.40000000E+02 1.00000000E-02
  1 1644 9.43000000E+02 1.00000000E-02
  1 1653 5.47000000E+02 1.00000000E-02
  1 1658 9.47000000E+02 1.00000000E-02
  1 1662 1.12400000E+03 1.00000000E-02
  1 1666 5.52000000E+02 1.00000000E-02
  1 1667 6.77000000E+02 1.00000000E-02
  1 1673 5.56000000E+02 1.00000000E-02
  1 1674 5.63000000E+02 1.00000000E-02
  1 1676 5.34000000E+02 1.00000000E-02
  1 1679 8.97000000E+02 1.00000000E-02
  1 1691 9.12000000E+02 1.00000000E-02
  1 1697 9.44000000E+02 1.00000000E-02
  1 1700 4.64000000E+02 1.00000000E-02
  1 1704 9.05000000E+02 1.00000000E-02
  1 1708 9.66000000E+02 1.00000000E-02
  1 1720 1.08200000E+03 1.00000000E-02
  1 1722 6.39000000E+02 1.00000000E-02
  1 1723 5.06000000E+02 1.00000000E-02
  1 1726 5.08000000E+02 1.00000000E-02
  1 1742 1.11600000E+03 1.00000000E-02
  1 1743 6.89000000E+02 1.00000000E-02
  1 1752 5.42000000E+02 1.00000000E-02
  1 1753 8.99000000E+02 1.00000000E-02
  1 1759 5.91000000E+02 1.00000000E-02
  1 1782 6.79000000E+02 1.00000000E-02
  1 1785 8.99000000E+02 1.00000000E-02
  1 1818 6.16000000E+02 1.00000000E-02
  1 1821 9.35000000E+02 1.00000000E-02
  1 1829 1.02400000E+03 1.00000000E-02
  1 1836 6.01000000E+02 1.00000000E-02
  1 1838 5.92000000E+02 1.00000000E-02
  1 1841 4.70000000E+02 1.00000000E-02
  1 1848 9.18000000E+02 1.00000000E-02
  1 1853 9.24000000E+02 1.00000000E-02
  1 1860 6.04000000E+02 1.00000000E-02
  1 1862 6.04000000E+02 1.00000000E-02
  1 1868 9.36000000E+02 1.00000000E-02
  1 1879 6.44000000E+02 1.00000000E-02
  1 1883 9.02000000E+02 1.00000000E-02
  1 1886 6.85000000E+02 1.00000000E-02
  1 1888 9.31000000E+02 1.00000000E-02
  1 1900 9.01000000E+02 1.00000000E-02
  1 1914 5.50000000E+02 1.00000000E-02
  1 1921 4.86000000E+02 1.00000000E-02
  1 1948 6.70000000E+02 1.00000000E-02
  1 1979 9.42000000E+02 1.00000000E-02
  1 1982 1.19100000E+03 1.00000000E-02
  1 1984 1.23700000E+03 1.00000000E-02
  1 1985 1.12100000E+03 1.00000000E-02
  1 1986 1.15100000E+03 1.00000000E-02
  1 1994 5.20000000E+02 1.00000000E-02
  1 1995 5.32000000E+02 1.00000000E-02
  1 2002 4.71000000E+02 1.00000000E-02
  1 2007 5.10000000E+02 1.00000000E-02
  1 2012 6.44000000E+02 1.00000000E-02
  1 2023 9.89000000E+02 1.00000000E-02
  1 2026 5.53000000E+02 1.00000000E-02
  1 2030 1.19900000E+03 1.00000000E-02
  1 2031 9.35000000E+02 1.00000000E-02
  1 2033 8.92000000E+02 1.00000000E-02
  1 2036 5.16000000E+02 1.00000000E-02
  1 2042 5.72000000E+02 1.00000000E-02
  1 2046 5.89000000E+02 1.00000000E-02
  1 2053 9.43000000E+02 1.00000000E-02
  1 2054 5.97000000E+02 1.00000000E-02
  1 2058 6.53000000E+02 1.00000000E-02
  1 2062 9.18000000E+02 1.00000000E-02
  1 2075 6.06000000E+02 1.00000000E-02
  1 2076 1.16500000E+03 1.00000000E-02
  1 2084 5.82000000E+02 1.00000000E-02
  1 2092 6.69000000E+02 1.00000000E-02
  1 2102 5.52000000E+02 1.00000000E-02
  1 2103 5.80000000E+02 1.00000000E-02
  1 2129 6.41000000E+02 1.00000000E-02
  1 2136 5.36000000E+02 1.00000000E-02
  1 2155 1.18500000E+03 1.00000000E-02
  1 2165 5.51000000E+02 1.00000000E-02
  1 2166 5.93000000E+02 1.00000000E-02
  1 2174 1.13400000E+03 1.00000000E-02
  1 2181 5.10000000E+02 1.00000000E-02
  1 2196 1.21100000E+03 1.00000000E-02
  1 2200 1.22200000E+03 1.00000000E-02
  1 2207 6.00000000E+02 1.00000000E-02
  1 2211 6.08000000E+02 1.00000000E-02
  1 2214 5.43000000E+02 1.00000000E-02
  1 2217 8.92000000E+02 1.00000000E-02
  1 2221 6.33000000E+02 1.00000000E-02
  1 2226 4.64000000E+02 1.00000000E-02
  1 2230 9.62000000E+02 1.00000000E-02
  1 2248 5.78000000E+02 1.00000000E-02
  1 2252 6.45000000E+02 1.00000000E-02
  1 2257 1.11800000E+03 1.00000000E-02
  1 2259 6.15000000E+02 1.00000000E-02
  1 2260 1.16700000E+03 1.00000000E-02
  1 2262 6.13000000E+02 1.00000000E-02
  1 2291 5.74000000E+02 1.00000000E-02
  1 2292 6.19000000E+02 1.00000000E-02
  1 2303 1.21200000E+03 1.00000000E-02
  1 2304 6.28000000E+02 1.00000000E-02
  1 2322 1.20500000E+03 1.00000000E-02
  1 2328 8.86000000E+02 1.00000000E-02
  1 2329 8.96000000E+02 1.00000000E-02
  1 2331 6.17000000E+02 1.00000000E-02
  1 2336 6.05000000E+02 1.00000000E-02
  1 2348 6.33000000E+02 1.00000000E-02
  1 2375 6.62000000E+02 1.00000000E-02
  1 2419 1.19100000E+03 1.00000000E-02
  1 2422 4.58000000E+02 1.00000000E-02
  1 2453 1.32500000E+03 1.00000000E-02
  1 2456 6.07000000E+02 1.00000000E-02
  1 2463 1.14300000E+03 1.00000000E-02
  1 2483 9.59000000E+02 1.00000000E-02
  1 2496 8.68000000E+02 1.00000000E-02
  1 2504 6.28000000E+02 1.00000000E-02
  1 2528 6.43000000E+02 1.00000000E-02
  1 2541 8.81000000E+02 1.00000000E-02
  1 2565 8.77000000E+02 1.00000000E-02
  1 2575 6.64000000E+02 1.00000000E-02
  1 2577 6.63000000E+02 1.00000000E-02
  1 2585 6.72000000E+02 1.00000000E-02
  1 2593 6.75000000E+02 1.00000000E-02
  1 2599 8.77000000E+02 1.00000000E-02
  1 2601 6.10000000E+02 1.00000000E-02
  1 2604 1.18700000E+03 1.00000000E-02
  1 2610 1.30300000E+03 1.00000000E-02
  1 2628 1.31100000E+03 1.00000000E-02
  1 2640 6.72000000E+02 1.00000000E-02
  1 2644 6.60000000E+02 1.00000000E-02
  1 2651 1.27900000E+03 1.00000000E-02
  1 2685 4.87000000E+02 1.00000000E-02
  1 2747 1.21400000E+03 1.00000000E-02
  1 2752 8.70000000E+02 1.00000000E-02
  1 2754 6.29000000E+02 1.00000000E-02
  1 2756 8.58000000E+02 1.00000000E-02
  1 2764 8.60000000E+02 1.00000000E-02
  1 2765 6.78000000E+02 1.00000000E-02
  1 2774 1.28000000E+03 1.00000000E-02
  1 2779 1.31600000E+03 1.00000000E-02
  1 2799 1.18200000E+03 1.00000000E-02
  1 2800 6.36000000E+02 1.00000000E-02
  1 2817 9.67000000E+02 1.00000000E-02
  1 2879 6.72000000E+02 1.00000000E-02
  1 2883 8.27000000E+02 1.00000000E-02
  1 2885 8.76000000E+02 1.00000000E-02
  1 2887 8.44000000E+02 1.00000000E-02
  1 2889 8.55000000E+02 1.00000000E-02
  1 2890 8.76000000E+02 1.00000000E-02
  1 2911 6.99000000E+02 1.00000000E-02
  1 2918 1.19500000E+03 1.00000000E-02
  1 2922 1.27600000E+03 1.00000000E-02
  1 2932 6.90000000E+02 1.00000000E-02
  1 2937 1.25100000E+03 1.00000000E-02
  1 2938 1.21000000E+03 1.00000000E-02
  1 2950 1.29300000E+03 1.00000000E-02
  1 2951 1.49600000E+03 1.00000000E-02
  1 2955 1.28800000E+03 1.00000000E-02
  1 2966 4.80000000E+02 1.00000000E-02
  1 2972 8.65000000E+02 1.00000000E-02
  1 3008 9.71000000E+02 1.00000000E-02
  1 3009 1.22600000E+03 1.00000000E-02
  1 3038 1.25000000E+03 1.00000000E-02
  1 3061 6.79000000E+02 1.00000000E-02
  1 3089 7.19000000E+02 1.00000000E-02
  1 3102 8.27000000E+02 1.00000000E-02
  1 3107 1.45500000E+03 1.00000000E-02
  1 3121 8.29000000E+02 1.00000000E-02
  1 3125 7.32000000E+02 1.00000000E-02
  1 3126 6.80000000E+02 1.00000000E-02
  1 3139 4.77000000E+02 1.00000000E-02
  1 3181 9.74000000E+02 1.00000000E-02
  1 3182 1.21600000E+03 1.00000000E-02
  1 3183 6.72000000E+02 1.00000000E-02
  1 3227 1.44500000E+03 1.00000000E-02
  1 3238 1.30500000E+03 1.00000000E-02
  1 3275 7.02000000E+02 1.00000000E-02
  1 3282 1.48200000E+03 1.00000000E-02
  1 3296 8.42000000E+02 1.00000000E-02
  1 3305 1.43100000E+03 1.00000000E-02
  1 3342 7.29000000E+02 1.00000000E-02
  1 3343 6.71000000E+02 1.00000000E-02
  1 3347 7.28000000E+02 1.00000000E-02
  1 3353 7.01000000E+02 1.00000000E-02
  1 3402 7.06000000E+02 1.00000000E-02
  1 3410 4.61000000E+02 1.00000000E-02
  1 3414 9.76000000E+02 1.00000000E-02
  1 3417 8.36000000E+02 1.00000000E-02
  1 3418 6.96000000E+02 1.00000000E-02
  1 3419 7.00000000E+02 1.00000000E-02
  1 3423 6.98000000E+02 1.00000000E-02
  1 3429 6.67000000E+02 1.00000000E-02
  1 3439 1.45700000E+03 1.00000000E-02
  1 3441 7.13000000E+02 1.00000000E-02
  1 3455 6.71000000E+02 1.00000000E-02
  1 3466 1.32900000E+03 1.00000000E-02
  1 3501 7.25000000E+02 1.00000000E-02
  1 3502 6.93000000E+02 1.00000000E-02
  1 3511 8.37000000E+02 1.00000000E-02
  1 3540 8.41000000E+02 1.00000000E-02
  1 3543 4.57000000E+02 1.00000000E-02
  1 3545 4.61000000E+02 1.00000000E-02
  1 3546 4.65000000E+02 1.00000000E-02
  1 3547 4.70000000E+02 1.00000000E-02
  1 3552 7.10000000E+02 1.00000000E-02
  1 3570 7.02000000E+02 1.00000000E-02
  1 3576 8.35000000E+02 1.00000000E-02
  1 3586 1.34600000E+03 1.00000000E-02
  1 3590 7.29000000E+02 1.00000000E-02
  1 3592 9.90000000E+02 1.00000000E-02
  1 3638 8.25000000E+02 1.00000000E-02
  1 3640 1.42200000E+03 1.00000000E-02
  1 3641 8.28000000E+02 1.00000000E-02
  1 3652 8.09000000E+02 1.00000000E-02
  1 3654 5.11000000E+02 1.00000000E-02
  1 3656 7.21000000E+02 1.00000000E-02
  1 3657 6.99000000E+02 1.00000000E-02
  1 3686 4.99000000E+02 1.00000000E-02
  1 3698 8.21000000E+02 1.00000000E-02
  1 3705 7.14000000E+02 1.00000000E-02
  1 3711 6.99000000E+02 1.00000000E-02
  1 3715 8.16000000E+02 1.00000000E-02
  1 3728 7.99000000E+02 1.00000000E-02
  1 3734 8.26000000E+02 1.00000000E-02
  1 3739 8.26000000E+02 1.00000000E-02
  1 3742 4.73000000E+02 1.00000000E-02
  1 3746 4.93000000E+02 1.00000000E-02
  1 3748 7.07000000E+02 1.00000000E-02
  1 3750 7.31000000E+02 1.00000000E-02
  1 3751 4.82000000E+02 1.00000000E-02
  1 3753 1.41400000E+03 1.00000000E-02
  1 3783 1.30900000E+03 1.00000000E-02
  1 3803 4.80000000E+02 1.00000000E-02
  1 3825 1.00900000E+03 1.00000000E-02
  1 3826 8.11000000E+02 1.00000000E-02
  1 3827 8.21000000E+02 1.00000000E-02
  1 3834 8.26000000E+02 1.00000000E-02
  1 3838 7.31000000E+02 1.00000000E-02
  1 3844 7.15000000E+02 1.00000000E-02
  1 3863 7.07000000E+02 1.00000000E-02
  1 3865 7.79000000E+02 1.00000000E-02
  1 3866 7.84000000E+02 1.00000000E-02
  1 3877 1.41900000E+03 1.00000000E-02
  1 3878 8.12000000E+02 1.00000000E-02
  1 3888 6.97000000E+02 1.00000000E-02
  1 3889 7.37000000E+02 1.00000000E-02
  1 3910 7.33000000E+02 1.00000000E-02
  1 3915 4.89000000E+02 1.00000000E-02
  1 3935 1.29700000E+03 1.00000000E-02
  1 3956 4.89000000E+02 1.00000000E-02
  1 3958 7.18000000E+02 1.00000000E-02
  1 3966 4.78000000E+02 1.00000000E-02
  1 3967 4.80000000E+02 1.00000000E-02
  1 3969 8.24000000E+02 1.00000000E-02
  1 3972 8.00000000E+02 1.00000000E-02
  1 3977 7.70000000E+02 1.00000000E-02
  1 3988 1.32600000E+03 1.00000000E-02
  1 3992 1.00800000E+03 1.00000000E-02
  1 4000 7.31000000E+02 1.00000000E-02
  1 4003 1.39500000E+03 1.00000000E-02
  1 4010 4.75000000E+02 1.00000000E-02
  1 4011 1.34500000E+03 1.00000000E-02
  1 4022 7.85000000E+02 1.00000000E-02
  1 4031 7.68000000E+02 1.00000000E-02
  1 4034 7.65000000E+02 1.00000000E-02
  1 4060 7.38000000E+02 1.00000000E-02
  1 4064 4.74000000E+02 1.00000000E-02
  1 4072 7.34000000E+02 1.00000000E-02
  1 4087 5.10000000E+02 1.00000000E-02
  1 4088 5.01000000E+02 1.00000000E-02
  1 4089 4.87000000E+02 1.00000000E-02
  1 4090 4.98000000E+02 1.00000000E-02
  1 4099 8.29000000E+02 1.00000000E-02
  1 4100 7.36000000E+02 1.00000000E-02
  1 4101 7.18000000E+02 1.00000000E-02
  1 4110 8.35000000E+02 1.00000000E-02
  1 4114 4.88000000E+02 1.00000000E-02
  1 4117 7.65000000E+02 1.00000000E-02
  1 4120 7.78000000E+02 1.00000000E-02
  1 4134 4.94000000E+02 1.00000000E-02
  1 4137 1.32700000E+03 1.00000000E-02
  1 4144 4.89000000E+02 1.00000000E-02
  1 4151 7.78000000E+02 1.00000000E-02
  1 4173 5.00000000E+02 1.00000000E-02
  1 4184 7.60000000E+02 1.00000000E-02
  1 4188 8.16000000E+02 1.00000000E-02
  1 4194 7.74000000E+02 1.00000000E-02
  1 4201 7.39000000E+02 1.00000000E-02
  1 4214 4.80000000E+02 1.00000000E-02
  1 4215 4.96000000E+02 1.00000000E-02
  1 4216 5.00000000E+02 1.00000000E-02
  1 4230 7.64000000E+02 1.00000000E-02
  1 4233 8.10000000E+02 1.00000000E-02
  1 4235 1.00800000E+03 1.00000000E-02
  1 4244 1.35600000E+03 1.00000000E-02
  1 4312 7.78000000E+02 1.00000000E-02
  1 4314 1.02200000E+03 1.00000000E-02
  1 4343 4.93000000E+02 1.00000000E-02
  1 4350 8.19000000E+02 1.00000000E-02
  1 4354 4.80000000E+02 1.00000000E-02
  1 4362 4.92000000E+02 1.00000000E-02
  1 4364 4.96000000E+02 1.00000000E-02
  1 4370 7.94000000E+02 1.00000000E-02
  1 4371 7.89000000E+02 1.00000000E-02
  1 4372 7.97000000E+02 1.00000000E-02
  1 4379 7.68000000E+02 1.00000000E-02
  1 4385 8.09000000E+02 1.00000000E-02
  1 4395 7.87000000E+02 1.00000000E-02
  1 4399 1.37800000E+03 1.00000000E-02
  1 4408 1.03500000E+03 1.00000000E-02
  1 4409 8.07000000E+02 1.00000000E-02
  1 4463 4.92000000E+02 1.00000000E-02
  1 4470 5.05000000E+02 1.00000000E-02
  1 4471 5.05000000E+02 1.00000000E-02
  1 4484 7.98000000E+02 1.00000000E-02
  1 4494 8.14000000E+02 1.00000000E-02
  1 4495 1.04300000E+03 1.00000000E-02
  1 4550 1.36000000E+03 1.00000000E-02
  1 4552 7.79000000E+02 1.00000000E-02
  1 4561 4.99000000E+02 1.00000000E-02
  1 4585 5.04000000E+02 1.00000000E-02
  1 4596 1.04500000E+03 1.00000000E-02
  1 4663 5.04000000E+02 1.00000000E-02
  1 4664 5.06000000E+02 1.00000000E-02
  1 4701 1.36600000E+03 1.00000000E-02
  1 4712 1.38800000E+03 1.00000000E-02
  1 4751 4.98000000E+02 1.00000000E-02
  1 4754 1.05900000E+03 1.00000000E-02
  1 4775 5.04000000E+02 1.00000000E-02
  1 4793 1.08800000E+03 1.00000000E-02
  1 4843 5.04000000E+02 1.00000000E-02
  1 4851 5.02000000E+02 1.00000000E-02
  1 4897 1.35900000E+03 1.00000000E-02
  1 4905 1.10200000E+03 1.00000000E-02
  1 4906 5.02000000E+02 1.00000000E-02
  1 4910 1.44700000E+03 1.00000000E-02
  1 4914 1.43800000E+03 1.00000000E-02
  1 4922 1.43000000E+03 1.00000000E-02
  1 4928 5.02000000E+02 1.00000000E-02
  1 4934 1.47100000E+03 1.00000000E-02
  1 4959 1.38400000E+03 1.00000000E-02
  1 4968 4.99000000E+02 1.00000000E-02
  1 4970 5.09000000E+02 1.00000000E-02
  1 4991 1.39700000E+03 1.00000000E-02
  1 5077 1.10700000E+03 1.00000000E-02
  1 5091 1.47300000E+03 1.00000000E-02
  1 5104 5.01000000E+02 1.00000000E-02
  1 5115 5.16000000E+02 1.00000000E-02
  1 5117 5.21000000E+02 1.00000000E-02
  1 5148 5.04000000E+02 1.00000000E-02
  1 5159 1.09600000E+03 1.00000000E-02
  1 5168 1.47600000E+03 1.00000000E-02
  1 5184 5.02000000E+02 1.00000000E-02
  1 5190 5.06000000E+02 1.00000000E-02
  1 5198 4.95000000E+02 1.00000000E-02
  1 5200 5.03000000E+02 1.00000000E-02
  1 5201 5.06000000E+02 1.00000000E-02
  1 5209 1.54200000E+03 1.00000000E-02
  1 5210 4.96000000E+02 1.00000000E-02
  1 5211 5.03000000E+02 1.00000000E-02
  1 5223 1.11700000E+03 1.00000000E-02
  1 5231 1.49800000E+03 1.00000000E-02
  1 5233 1.54600000E+03 1.00000000E-02
  1 5240 5.00000000E+02 1.00000000E-02
  1 5245 4.93000000E+02 1.00000000E-02
  1 5255 1.53000000E+03 1.00000000E-02
  1 5261 1.15100000E+03 1.00000000E-02
  1 5269 1.55300000E+03 1.00000000E-02
  1 5272 5.15000000E+02 1.00000000E-02
  1 5276 1.48000000E+03 1.00000000E-02
  1 5301 1.54000000E+03 1.00000000E-02
  1 5313 5.06000000E+02 1.00000000E-02
  1 5339 5.24000000E+02 1.00000000E-02
  1 5347 1.61400000E+03 1.00000000E-02
  1 5353 1.13800000E+03 1.00000000E-02
  1 5364 5.60000000E+02 1.00000000E-02
  1 5375 1.57400000E+03 1.00000000E-02
  1 5378 1.19000000E+03 1.00000000E-02
  1 5398 5.21000000E+02 1.00000000E-02
  1 5405 1.56800000E+03 1.00000000E-02
  1 5421 1.15700000E+03 1.00000000E-02
  1 5472 5.19000000E+02 1.00000000E-02
  1 5490 1.59900000E+03 1.00000000E-02
  1 5497 1.15700000E+03 1.00000000E-02
  1 5501 1.59200000E+03 1.00000000E-02
  1 5509 5.18000000E+02 1.00000000E-02
  1 5512 5.29000000E+02 1.00000000E-02
  1 5531 1.17400000E+03 1.00000000E-02
  1 5549 5.32000000E+02 1.00000000E-02
  1 5554 5.33000000E+02 1.00000000E-02
  1 5555 5.31000000E+02 1.00000000E-02
  1 5558 1.19000000E+03 1.00000000E-02
  1 5560 1.60500000E+03 1.00000000E-02
  1 5582 1.63000000E+03 1.00000000E-02
  1 5592 1.65300000E+03 1.00000000E-02
  1 5594 5.39000000E+02 1.00000000E-02
  1 5595 1.67900000E+03 1.00000000E-02
  1 5621 1.63600000E+03 1.00000000E-02
  1 5622 1.66400000E+03 1.00000000E-02
  1 5623 5.43000000E+02 1.00000000E-02
  1 5629 1.67100000E+03 1.00000000E-02
  1 5642 1.70800000E+03 1.00000000E-02
  1 5645 1.64200000E+03 1.00000000E-02
  1 5655 5.36000000E+02 1.00000000E-02
  1 5676 1.77200000E+03 1.00000000E-02
  1 5725 1.64100000E+03 1.00000000E-02
  1 5731 1.61500000E+03 1.00000000E-02
  1 5732 1.65100000E+03 1.00000000E-02
  1 5733 1.62900000E+03 1.00000000E-02
  1 5735 1.68000000E+03 1.00000000E-02
  1 5739 1.66100000E+03 1.00000000E-02
  1 5741 5.70000000E+02 1.00000000E-02
  1 5751 5.30000000E+02 1.00000000E-02
  1 5753 1.71900000E+03 1.00000000E-02
  1 5773 1.63100000E+03 1.00000000E-02
  1 5783 1.70300000E+03 1.00000000E-02
  1 5784 1.66800000E+03 1.00000000E-02
  1 5799 5.62000000E+02 1.00000000E-02
  1 5817 5.61000000E+02 1.00000000E-02
  1 5819 1.76200000E+03 1.00000000E-02
  1 5853 1.74100000E+03 1.00000000E-02
  1 5854 5.47000000E+02 1.00000000E-02
  1 5878 1.76500000E+03 1.00000000E-02
  1 5887 5.82000000E+02 1.00000000E-02
  1 5893 5.55000000E+02 1.00000000E-02
  1 5909 1.76500000E+03 1.00000000E-02
  1 5929 5.64000000E+02 1.00000000E-02
  1 5948 5.76000000E+02 1.00000000E-02
  1 5950 1.79000000E+03 1.00000000E-02
  1 6015 5.54000000E+02 1.00000000E-02
  1 6053 5.95000000E+02 1.00000000E-02
  1 6066 5.56000000E+02 1.00000000E-02
  1 6068 1.82400000E+03 1.00000000E-02
  1 6073 5.54000000E+02 1.00000000E-02
  1 6074 1.80300000E+03 1.00000000E-02
  1 6076 5.90000000E+02 1.00000000E-02
  1 6085 5.68000000E+02 1.00000000E-02
  1 6099 1.77700000E+03 1.00000000E-02
  1 6112 1.76000000E+03 1.00000000E-02
  1 6125 5.64000000E+02 1.00000000E-02
  1 6128 5.64000000E+02 1.00000000E-02
  1 6147 5.65000000E+02 1.00000000E-02
  1 6155 5.60000000E+02 1.00000000E-02
  1 6174 5.60000000E+02 1.00000000E-02
  1 6191 1.75700000E+03 1.00000000E-02
  1 6193 5.73000000E+02 1.00000000E-02
  1 6211 6.16000000E+02 1.00000000E-02
  1 6213 1.75400000E+03 1.00000000E-02
  1 6235 5.79000000E+02 1.00000000E-02
  1 6246 6.24000000E+02 1.00000000E-02
  1 6247 5.98000000E+02 1.00000000E-02
  1 6248 5.78000000E+02 1.00000000E-02
  1 6263 5.99000000E+02 1.00000000E-02
  1 6265 5.79000000E+02 1.00000000E-02
  1 6268 1.77500000E+03 1.00000000E-02
  1 6289 1.78100000E+03 1.00000000E-02
  1 6292 1.79400000E+03 1.00000000E-02
  1 6322 5.84000000E+02 1.00000000E-02
  1 6334 5.89000000E+02 1.00000000E-02
  1 6337 6.12000000E+02 1.00000000E-02
  1 6338 5.89000000E+02 1.00000000E-02
  1 6373 6.15000000E+02 1.00000000E-02
  1 6374 5.95000000E+02 1.00000000E-02
  1 6378 6.37000000E+02 1.00000000E-02
  1 6405 5.98000000E+02 1.00000000E-02
  1 6413 6.15000000E+02 1.00000000E-02
  1 6414 6.15000000E+02 1.00000000E-02
  1 6417 6.41000000E+02 1.00000000E-02
  1 6451 1.80500000E+03 1.00000000E-02
  1 6455 5.98000000E+02 1.00000000E-02
  1 6459 6.00000000E+02 1.00000000E-02
  1 6463 6.07000000E+02 1.00000000E-02
  1 6466 6.20000000E+02 1.00000000E-02
  1 6501 6.11000000E+02 1.00000000E-02
  1 6526 6.03000000E+02 1.00000000E-02
  1 6532 1.83100000E+03 1.00000000E-02
  1 6554 6.16000000E+02 1.00000000E-02
  1 6558 6.03000000E+02 1.00000000E-02
  1 6577 1.79500000E+03 1.00000000E-02
  1 6603 6.24000000E+02 1.00000000E-02
  1 6604 6.15000000E+02 1.00000000E-02
  1 6613 6.33000000E+02 1.00000000E-02
  1 6626 6.25000000E+02 1.00000000E-02
  1 6631 1.81000000E+03 1.00000000E-02
  1 6645 6.06000000E+02 1.00000000E-02
  1 6649 6.11000000E+02 1.00000000E-02
  1 6650 6.06000000E+02 1.00000000E-02
  1 6661 6.72000000E+02 1.00000000E-02
  1 6676 5.96000000E+02 1.00000000E-02
  1 6693 1.82400000E+03 1.00000000E-02
  1 6739 6.57000000E+02 1.00000000E-02
  1 6758 7.47000000E+02 1.00000000E-02
  1 6766 8.27000000E+02 1.00000000E-02
  1 6775 6.94000000E+02 1.00000000E-02
  1 6778 7.48000000E+02 1.00000000E-02
  1 6780 7.02000000E+02 1.00000000E-02
  1 6790 6.36000000E+02 1.00000000E-02
  1 6793 1.80900000E+03 1.00000000E-02
  1 6809 7.08000000E+02 1.00000000E-02
  1 6810 7.93000000E+02 1.00000000E-02
  1 6812 8.23000000E+02 1.00000000E-02
  1 6824 8.24000000E+02 1.00000000E-02
  1 6825 7.58000000E+02 1.00000000E-02
  1 6826 7.60000000E+02 1.00000000E-02
  1 6832 1.81700000E+03 1.00000000E-02
  1 6840 6.40000000E+02 1.00000000E-02
  1 6841 6.25000000E+02 1.00000000E-02
  1 6853 7.14000000E+02 1.00000000E-02
  1 6855 7.37000000E+02 1.00000000E-02
  1 6858 7.99000000E+02 1.00000000E-02
  1 6872 8.30000000E+02 1.00000000E-02
  1 6878 7.06000000E+02 1.00000000E-02
  1 6888 6.29000000E+02 1.00000000E-02
  1 6894 7.57000000E+02 1.00000000E-02
  1 6923 6.33000000E+02 1.00000000E-02
  1 6924 7.11000000E+02 1.00000000E-02
  1 6927 7.33000000E+02 1.00000000E-02
  1 6929 8.22000000E+02 1.00000000E-02
  1 6934 7.08000000E+02 1.00000000E-02
  1 6936 1.83400000E+03 1.00000000E-02
  1 6968 1.82600000E+03 1.00000000E-02
  1 6974 7.09000000E+02 1.00000000E-02
  1 6984 6.67000000E+02 1.00000000E-02
  1 6987 6.29000000E+02 1.00000000E-02
  1 6991 6.31000000E+02 1.00000000E-02
  1 6996 6.99000000E+02 1.00000000E-02
  1 6997 6.78000000E+02 1.00000000E-02
  1 6998 8.48000000E+02 1.00000000E-02
  1 7005 6.77000000E+02 1.00000000E-02
  1 7008 8.38000000E+02 1.00000000E-02
  1 7009 6.89000000E+02 1.00000000E-02
  1 7015 6.62000000E+02 1.00000000E-02
  1 7028 6.74000000E+02 1.00000000E-02
  1 7035 8.74000000E+02 1.00000000E-02
  1 7042 6.65000000E+02 1.00000000E-02
  1 7046 7.11000000E+02 1.00000000E-02
  1 7053 8.62000000E+02 1.00000000E-02
  1 7061 6.29000000E+02 1.00000000E-02
  1 7062 1.87500000E+03 1.00000000E-02
  1 7067 7.24000000E+02 1.00000000E-02
  1 7076 7.11000000E+02 1.00000000E-02
  1 7089 6.55000000E+02 1.00000000E-02
  1 7090 6.63000000E+02 1.00000000E-02
  1 7092 6.25000000E+02 1.00000000E-02
  1 7095 8.24000000E+02 1.00000000E-02
  1 7098 6.54000000E+02 1.00000000E-02
  1 7105 6.71000000E+02 1.00000000E-02
  1 7106 6.58000000E+02 1.00000000E-02
  1 7113 6.80000000E+02 1.00000000E-02
  1 7117 6.25000000E+02 1.00000000E-02
  1 7119 8.57000000E+02 1.00000000E-02
  1 7124 1.86700000E+03 1.00000000E-02
  1 7125 8.65000000E+02 1.00000000E-02
  1 7127 6.80000000E+02 1.00000000E-02
  1 7134 8.57000000E+02 1.00000000E-02
  1 7142 6.80000000E+02 1.00000000E-02
  1 7150 6.27000000E+02 1.00000000E-02
  1 7154 6.78000000E+02 1.00000000E-02
  1 7161 6.74000000E+02 1.00000000E-02
  1 7173 1.84300000E+03 1.00000000E-02
  1 7214 1.35200000E+03 1.00000000E-02
  1 7218 8.74000000E+02 1.00000000E-02
  1 7224 7.18000000E+02 1.00000000E-02
  1 7235 8.93000000E+02 1.00000000E-02
  1 7245 8.56000000E+02 1.00000000E-02
  1 7247 8.72000000E+02 1.00000000E-02
  1 7248 8.78000000E+02 1.00000000E-02
  1 7258 6.83000000E+02 1.00000000E-02
  1 7260 1.85600000E+03 1.00000000E-02
  1 7265 1.36000000E+03 1.00000000E-02
  1 7271 6.99000000E+02 1.00000000E-02
  1 7276 6.32000000E+02 1.00000000E-02
  1 7287 1.35900000E+03 1.00000000E-02
  1 7289 6.81000000E+02 1.00000000E-02
  1 7290 6.32000000E+02 1.00000000E-02
  1 7291 6.39000000E+02 1.00000000E-02
  1 7299 6.69000000E+02 1.00000000E-02