# File generated by Flopy version 3.9.2 on 04/07/2025 at 09:15:50.
BEGIN options
END options

BEGIN dimensions
  MAXBOUND  783
END dimensions

BEGIN period  1
  1 1 3868 1.00000000E-02
  1 4 3793 1.00000000E-02
  1 19 3724 1.00000000E-02
  1 21 3714 1.00000000E-02
  1 34 3873 1.00000000E-02
  1 35 3919 1.00000000E-02
  1 36 3906 1.00000000E-02
  1 41 3875 1.00000000E-02
  1 52 3708 1.00000000E-02
  1 54 3835 1.00000000E-02
  1 55 3873 1.00000000E-02
  1 58 3872 1.00000000E-02
  1 59 3850 1.00000000E-02
  1 61 3837 1.00000000E-02
  1 62 3790 1.00000000E-02
  1 65 3863 1.00000000E-02
  1 71 3897 1.00000000E-02
  1 72 3863 1.00000000E-02
  1 74 3863 1.00000000E-02
  1 75 3837 1.00000000E-02
  1 76 3786 1.00000000E-02
  1 81 3842 1.00000000E-02
  1 82 3858 1.00000000E-02
  1 88 3701 1.00000000E-02
  1 92 3855 1.00000000E-02
  1 103 3789 1.00000000E-02
  1 104 3842 1.00000000E-02
  1 107 3837 1.00000000E-02
  1 108 3831 1.00000000E-02
  1 111 3707 1.00000000E-02
  1 122 3789 1.00000000E-02
  1 137 3703 1.00000000E-02
  1 139 3661 1.00000000E-02
  1 141 3824 1.00000000E-02
  1 143 3789 1.00000000E-02
  1 149 3693 1.00000000E-02
  1 159 3783 1.00000000E-02
  1 164 3815 1.00000000E-02
  1 182 3645 1.00000000E-02
  1 186 3643 1.00000000E-02
  1 193 3818 1.00000000E-02
  1 203 3778 1.00000000E-02
  1 207 3650 1.00000000E-02
  1 211 3818 1.00000000E-02
  1 213 3664 1.00000000E-02
  1 220 3678 1.00000000E-02
  1 223 3769 1.00000000E-02
  1 227 3646 1.00000000E-02
  1 234 3666 1.00000000E-02
  1 237 3813 1.00000000E-02
  1 248 3626 1.00000000E-02
  1 252 3637 1.00000000E-02
  1 255 3626 1.00000000E-02
  1 257 3814 1.00000000E-02
  1 260 3765 1.00000000E-02
  1 263 3665 1.00000000E-02
  1 264 3627 1.00000000E-02
  1 265 3662 1.00000000E-02
  1 266 3709 1.00000000E-02
  1 268 3837 1.00000000E-02
  1 271 3680 1.00000000E-02
  1 272 3722 1.00000000E-02
  1 277 3634 1.00000000E-02
  1 281 3733 1.00000000E-02
  1 282 3760 1.00000000E-02
  1 293 3662 1.00000000E-02
  1 294 3810 1.00000000E-02
  1 295 3816 1.00000000E-02
  1 303 3638 1.00000000E-02
  1 304 3740 1.00000000E-02
  1 308 3837 1.00000000E-02
  1 313 3744 1.00000000E-02
  1 315 3662 1.00000000E-02
  1 316 3653 1.00000000E-02
  1 319 3644 1.00000000E-02
  1 338 3816 1.00000000E-02
  1 347 3757 1.00000000E-02
  1 351 3845 1.00000000E-02
  1 358 3817 1.00000000E-02
  1 361 3728 1.00000000E-02
  1 374 3645 1.00000000E-02
  1 376 3666 1.00000000E-02
  1 380 3759 1.00000000E-02
  1 383 3807 1.00000000E-02
  1 385 3830 1.00000000E-02
  1 386 3753 1.00000000E-02
  1 387 3663 1.00000000E-02
  1 388 3845 1.00000000E-02
  1 390 3853 1.00000000E-02
  1 395 3721 1.00000000E-02
  1 397 3847 1.00000000E-02
  1 400 3683 1.00000000E-02
  1 408 3717 1.00000000E-02
  1 409 3679 1.00000000E-02
  1 410 3760 1.00000000E-02
  1 411 3794 1.00000000E-02
  1 416 3646 1.00000000E-02
  1 423 3866 1.00000000E-02
  1 424 3724 1.00000000E-02
  1 431 3862 1.00000000E-02
  1 433 3791 1.00000000E-02
  1 440 3705 1.00000000E-02
  1 442 3769 1.00000000E-02
  1 446 3769 1.00000000E-02
  1 449 3730 1.00000000E-02
  1 451 3765 1.00000000E-02
  1 457 3862 1.00000000E-02
  1 464 3856 1.00000000E-02
  1 465 3762 1.00000000E-02
  1 466 3766 1.00000000E-02
  1 468 3643 1.00000000E-02
  1 472 3690 1.00000000E-02
  1 476 3777 1.00000000E-02
  1 477 3759 1.00000000E-02
  1 480 3740 1.00000000E-02
  1 482 3690 1.00000000E-02
  1 484 3743 1.00000000E-02
  1 485 3880 1.00000000E-02
  1 489 3738 1.00000000E-02
  1 493 3759 1.00000000E-02
  1 500 3875 1.00000000E-02
  1 501 3928 1.00000000E-02
  1 502 3770 1.00000000E-02
  1 506 3647 1.00000000E-02
  1 508 3781 1.00000000E-02
  1 509 3756 1.00000000E-02
  1 511 3892 1.00000000E-02
  1 513 3710 1.00000000E-02
  1 518 3988 1.00000000E-02
  1 521 3878 1.00000000E-02
  1 527 3716 1.00000000E-02
  1 531 3771 1.00000000E-02
  1 545 3766 1.00000000E-02
  1 552 3894 1.00000000E-02
  1 559 3891 1.00000000E-02
  1 561 3650 1.00000000E-02
  1 564 3786 1.00000000E-02
  1 573 3787 1.00000000E-02
  1 574 3790 1.00000000E-02
  1 579 3908 1.00000000E-02
  1 581 3783 1.00000000E-02
  1 585 3726 1.00000000E-02
  1 596 3908 1.00000000E-02
  1 598 3936 1.00000000E-02
  1 603 3790 1.00000000E-02
  1 614 3790 1.00000000E-02
  1 616 3915 1.00000000E-02
  1 618 3922 1.00000000E-02
  1 619 3923 1.00000000E-02
  1 620 3923 1.00000000E-02
  1 623 3944 1.00000000E-02
  1 626 3652 1.00000000E-02
  1 628 3734 1.00000000E-02
  1 639 3930 1.00000000E-02
  1 649 3922 1.00000000E-02
  1 651 3939 1.00000000E-02
  1 653 3932 1.00000000E-02
  1 655 3808 1.00000000E-02
  1 660 3992 1.00000000E-02
  1 663 3955 1.00000000E-02
  1 665 3991 1.00000000E-02
  1 666 4000 1.00000000E-02
  1 670 3652 1.00000000E-02
  1 672 3931 1.00000000E-02
  1 673 3987 1.00000000E-02
  1 675 3931 1.00000000E-02
  1 680 4009 1.00000000E-02
  1 684 3955 1.00000000E-02
  1 685 3932 1.00000000E-02
  1 690 4010 1.00000000E-02
  1 696 3955 1.00000000E-02
  1 698 3974 1.00000000E-02
  1 702 3972 1.00000000E-02
  1 706 4011 1.00000000E-02
  1 707 4017 1.00000000E-02
  1 708 4017 1.00000000E-02
  1 711 3959 1.00000000E-02
  1 713 4020 1.00000000E-02
  1 717 3964 1.00000000E-02
  1 720 3971 1.00000000E-02
  1 730 3654 1.00000000E-02
  1 731 3661 1.00000000E-02
  1 735 3820 1.00000000E-02
  1 747 4019 1.00000000E-02
  1 753 4020 1.00000000E-02
  1 759 3821 1.00000000E-02
  1 790 3757 1.00000000E-02
  1 792 3662 1.00000000E-02
  1 814 3753 1.00000000E-02
  1 818 3830 1.00000000E-02
  1 823 3828 1.00000000E-02
  1 829 3828 1.00000000E-02
  1 831 3828 1.00000000E-02
  1 852 3764 1.00000000E-02
  1 865 3840 1.00000000E-02
  1 893 3836 1.00000000E-02
  1 894 3840 1.00000000E-02
  1 898 3836 1.00000000E-02
  1 916 3836 1.00000000E-02
  1 918 3668 1.00000000E-02
  1 925 3836 1.00000000E-02
  1 932 3771 1.00000000E-02
  1 946 3845 1.00000000E-02
  1 954 3845 1.00000000E-02
  1 960 3668 1.00000000E-02
  1 967 3845 1.00000000E-02
  1 968 3837 1.00000000E-02
  1 970 3839 1.00000000E-02
  1 993 3886 1.00000000E-02
  1 994 3875 1.00000000E-02
  1 999 3850 1.00000000E-02
  1 1015 3781 1.00000000E-02
  1 1025 3830 1.00000000E-02
  1 1026 3830 1.00000000E-02
  1 1028 3830 1.00000000E-02
  1 1038 3671 1.00000000E-02
  1 1054 3850 1.00000000E-02
  1 1056 3858 1.00000000E-02
  1 1059 3828 1.00000000E-02
  1 1064 3780 1.00000000E-02
  1 1067 3678 1.00000000E-02
  1 1073 3828 1.00000000E-02
  1 1082 3830 1.00000000E-02
  1 1087 3869 1.00000000E-02
  1 1088 3858 1.00000000E-02
  1 1091 3853 1.00000000E-02
  1 1093 3840 1.00000000E-02
  1 1139 3840 1.00000000E-02
  1 1140 3840 1.00000000E-02
  1 1143 3843 1.00000000E-02
  1 1144 3853 1.00000000E-02
  1 1159 3853 1.00000000E-02
  1 1161 3860 1.00000000E-02
  1 1166 3854 1.00000000E-02
  1 1167 3855 1.00000000E-02
  1 1168 3786 1.00000000E-02
  1 1177 3854 1.00000000E-02
  1 1180 3860 1.00000000E-02
  1 1189 3811 1.00000000E-02
  1 1201 3874 1.00000000E-02
  1 1205 3855 1.00000000E-02
  1 1208 3849 1.00000000E-02
  1 1210 3855 1.00000000E-02
  1 1213 3861 1.00000000E-02
  1 1214 3855 1.00000000E-02
  1 1234 3861 1.00000000E-02
  1 1243 3865 1.00000000E-02
  1 1245 3790 1.00000000E-02
  1 1269 3917 1.00000000E-02
  1 1271 3861 1.00000000E-02
  1 1275 3779 1.00000000E-02
  1 1276 3858 1.00000000E-02
  1 1290 3878 1.00000000E-02
  1 1297 3877 1.00000000E-02
  1 1298 3875 1.00000000E-02
  1 1304 3869 1.00000000E-02
  1 1309 3786 1.00000000E-02
  1 1310 3866 1.00000000E-02
  1 1311 3863 1.00000000E-02
  1 1315 3878 1.00000000E-02
  1 1325 3878 1.00000000E-02
  1 1330 3895 1.00000000E-02
  1 1370 3892 1.00000000E-02
  1 1379 3788 1.00000000E-02
  1 1382 3895 1.00000000E-02
  1 1387 3902 1.00000000E-02
  1 1404 3895 1.00000000E-02
  1 1406 3895 1.00000000E-02
  1 1420 3799 1.00000000E-02
  1 1427 3891 1.00000000E-02
  1 1452 3800 1.00000000E-02
  1 1455 3895 1.00000000E-02
  1 1477 3908 1.00000000E-02
  1 1485 3890 1.00000000E-02
  1 1491 3908 1.00000000E-02
  1 1495 3899 1.00000000E-02
  1 1496 3809 1.00000000E-02
  1 1516 3927 1.00000000E-02
  1 1530 3915 1.00000000E-02
  1 1546 3906 1.00000000E-02
  1 1547 3927 1.00000000E-02
  1 1555 3812 1.00000000E-02
  1 1558 3925 1.00000000E-02
  1 1623 3925 1.00000000E-02
  1 1624 3925 1.00000000E-02
  1 1641 3940 1.00000000E-02
  1 1645 3921 1.00000000E-02
  1 1646 3925 1.00000000E-02
  1 1649 3918 1.00000000E-02
  1 1651 3822 1.00000000E-02
  1 1655 3919 1.00000000E-02
  1 1660 3925 1.00000000E-02
  1 1674 3931 1.00000000E-02
  1 1679 3926 1.00000000E-02
  1 1683 3930 1.00000000E-02
  1 1686 3939 1.00000000E-02
  1 1696 3947 1.00000000E-02
  1 1702 3925 1.00000000E-02
  1 1703 3926 1.00000000E-02
  1 1721 3936 1.00000000E-02
  1 1724 3948 1.00000000E-02
  1 1728 3936 1.00000000E-02
  1 1734 3936 1.00000000E-02
  1 1737 3932 1.00000000E-02
  1 1738 3832 1.00000000E-02
  1 1761 3850 1.00000000E-02
  1 1766 3941 1.00000000E-02
  1 1769 3955 1.00000000E-02
  1 1801 3833 1.00000000E-02
  1 1803 3933 1.00000000E-02
  1 1811 3967 1.00000000E-02
  1 1812 3938 1.00000000E-02
  1 1838 3934 1.00000000E-02
  1 1843 3981 1.00000000E-02
  1 1853 3844 1.00000000E-02
  1 1901 3946 1.00000000E-02
  1 1906 3855 1.00000000E-02
  1 1909 3978 1.00000000E-02
  1 1910 3973 1.00000000E-02
  1 1914 4003 1.00000000E-02
  1 1940 3934 1.00000000E-02
  1 1953 3986 1.00000000E-02
  1 1978 3962 1.00000000E-02
  1 1979 4005 1.00000000E-02
  1 1981 3873 1.00000000E-02
  1 1987 4027 1.00000000E-02
  1 1989 3991 1.00000000E-02
  1 1995 3941 1.00000000E-02
  1 1998 3986 1.00000000E-02
  1 2004 4019 1.00000000E-02
  1 2006 3876 1.00000000E-02
  1 2027 3981 1.00000000E-02
  1 2030 4034 1.00000000E-02
  1 2033 3986 1.00000000E-02
  1 2035 3997 1.00000000E-02
  1 2043 3993 1.00000000E-02
  1 2044 4031 1.00000000E-02
  1 2049 3876 1.00000000E-02
  1 2050 3948 1.00000000E-02
  1 2073 3984 1.00000000E-02
  1 2087 3998 1.00000000E-02
  1 2097 3893 1.00000000E-02
  1 2101 3993 1.00000000E-02
  1 2105 4030 1.00000000E-02
  1 2132 3890 1.00000000E-02
  1 2143 4035 1.00000000E-02
  1 2171 3902 1.00000000E-02
  1 2177 3953 1.00000000E-02
  1 2182 4000 1.00000000E-02
  1 2186 4010 1.00000000E-02
  1 2208 3909 1.00000000E-02
  1 2224 3954 1.00000000E-02
  1 2227 4038 1.00000000E-02
  1 2239 4045 1.00000000E-02
  1 2241 3963 1.00000000E-02
  1 2270 3922 1.00000000E-02
  1 2278 4001 1.00000000E-02
  1 2283 4051 1.00000000E-02
  1 2311 3970 1.00000000E-02
  1 2318 3929 1.00000000E-02
  1 2343 4059 1.00000000E-02
  1 2345 4006 1.00000000E-02
  1 2347 4007 1.00000000E-02
  1 2355 3975 1.00000000E-02
  1 2386 4025 1.00000000E-02
  1 2390 3928 1.00000000E-02
  1 2420 4065 1.00000000E-02
  1 2421 3981 1.00000000E-02
  1 2426 4066 1.00000000E-02
  1 2427 3928 1.00000000E-02
  1 2450 3937 1.00000000E-02
  1 2486 4072 1.00000000E-02
  1 2503 3992 1.00000000E-02
  1 2504 4029 1.00000000E-02
  1 2511 3946 1.00000000E-02
  1 2535 4081 1.00000000E-02
  1 2546 4000 1.00000000E-02
  1 2578 4033 1.00000000E-02
  1 2584 4011 1.00000000E-02
  1 2618 4081 1.00000000E-02
  1 2620 3956 1.00000000E-02
  1 2642 4037 1.00000000E-02
  1 2654 4011 1.00000000E-02
  1 2664 4079 1.00000000E-02
  1 2690 3986 1.00000000E-02
  1 2697 4036 1.00000000E-02
  1 2698 4082 1.00000000E-02
  1 2723 4009 1.00000000E-02
  1 2728 4085 1.00000000E-02
  1 2730 4004 1.00000000E-02
  1 2750 4041 1.00000000E-02
  1 2759 3993 1.00000000E-02
  1 2762 4104 1.00000000E-02
  1 2764 4021 1.00000000E-02
  1 2792 3999 1.00000000E-02
  1 2815 4057 1.00000000E-02
  1 2821 4035 1.00000000E-02
  1 2840 4047 1.00000000E-02
  1 2878 4105 1.00000000E-02
  1 2887 4078 1.00000000E-02
  1 2911 4002 1.00000000E-02
  1 2918 4111 1.00000000E-02
  1 2946 4043 1.00000000E-02
  1 2960 4078 1.00000000E-02
  1 2978 4060 1.00000000E-02
  1 2980 4013 1.00000000E-02
  1 2988 4108 1.00000000E-02
  1 3010 4057 1.00000000E-02
  1 3014 4021 1.00000000E-02
  1 3024 4114 1.00000000E-02
  1 3030 4080 1.00000000E-02
  1 3073 4068 1.00000000E-02
  1 3077 4088 1.00000000E-02
  1 3102 4124 1.00000000E-02
  1 3112 4025 1.00000000E-02
  1 3135 4129 1.00000000E-02
  1 3137 4096 1.00000000E-02
  1 3169 4089 1.00000000E-02
  1 3175 4091 1.00000000E-02
  1 3209 4029 1.00000000E-02
  1 3212 4121 1.00000000E-02
  1 3218 4100 1.00000000E-02
  1 3219 4093 1.00000000E-02
  1 3240 4122 1.00000000E-02
  1 3247 4037 1.00000000E-02
  1 3275 4125 1.00000000E-02
  1 3287 4101 1.00000000E-02
  1 3289 4107 1.00000000E-02
  1 3317 4045 1.00000000E-02
  1 3364 4054 1.00000000E-02
  1 3386 4119 1.00000000E-02
  1 3390 4141 1.00000000E-02
  1 3428 4105 1.00000000E-02
  1 3431 4144 1.00000000E-02
  1 3432 4123 1.00000000E-02
  1 3447 4062 1.00000000E-02
  1 3451 4114 1.00000000E-02
  1 3461 4144 1.00000000E-02
  1 3473 4117 1.00000000E-02
  1 3474 4087 1.00000000E-02
  1 3475 4071 1.00000000E-02
  1 3477 4151 1.00000000E-02
  1 3490 4126 1.00000000E-02
  1 3492 4158 1.00000000E-02
  1 3497 4090 1.00000000E-02
  1 3498 4092 1.00000000E-02
  1 3526 4170 1.00000000E-02
  1 3527 4168 1.00000000E-02
  1 3534 4135 1.00000000E-02
  1 3536 4086 1.00000000E-02
  1 3538 4130 1.00000000E-02
  1 3540 4180 1.00000000E-02
  1 3543 4085 1.00000000E-02
  1 3546 4085 1.00000000E-02
  1 3562 4145 1.00000000E-02
  1 3568 4147 1.00000000E-02
END period  1

BEGIN period  2
  1 1 3868 1.00000000E-02
  1 4 3793 1.00000000E-02
  1 19 3724 1.00000000E-02
  1 21 3714 1.00000000E-02
  1 34 3873 1.00000000E-02
  1 35 3919 1.00000000E-02
  1 36 3906 1.00000000E-02
  1 41 3875 1.00000000E-02
  1 52 3708 1.00000000E-02
  1 54 3835 1.00000000E-02
  1 55 3873 1.00000000E-02
  1 58 3872 1.00000000E-02
  1 59 3850 1.00000000E-02
  1 61 3837 1.00000000E-02
  1 62 3790 1.00000000E-02
  1 65 3863 1.00000000E-02
  1 71 3897 1.00000000E-02
  1 72 3863 1.00000000E-02
  1 74 3863 1.00000000E-02
  1 75 3837 1.00000000E-02
  1 76 3786 1.00000000E-02
  1 81 3842 1.00000000E-02
  1 82 3858 1.00000000E-02
  1 88 3701 1.00000000E-02
  1 92 3855 1.00000000E-02
  1 103 3789 1.00000000E-02
  1 104 3842 1.00000000E-02
  1 107 3837 1.00000000E-02
  1 108 3831 1.00000000E-02
  1 111 3707 1.00000000E-02
  1 122 3789 1.00000000E-02
  1 137 3703 1.00000000E-02
  1 139 3661 1.00000000E-02
  1 141 3824 1.00000000E-02
  1 143 3789 1.00000000E-02
  1 149 3693 1.00000000E-02
  1 159 3783 1.00000000E-02
  1 164 3815 1.00000000E-02
  1 182 3645 1.00000000E-02
  1 186 3643 1.00000000E-02
  1 193 3818 1.00000000E-02
  1 203 3778 1.00000000E-02
  1 207 3650 1.00000000E-02
  1 211 3818 1.00000000E-02
  1 213 3664 1.00000000E-02
  1 220 3678 1.00000000E-02
  1 223 3769 1.00000000E-02
  1 227 3646 1.00000000E-02
  1 234 3666 1.00000000E-02
  1 237 3813 1.00000000E-02
  1 248 3626 1.00000000E-02
  1 252 3637 1.00000000E-02
  1 255 3626 1.00000000E-02
  1 257 3814 1.00000000E-02
  1 260 3765 1.00000000E-02
  1 263 3665 1.00000000E-02
  1 264 3627 1.00000000E-02
  1 265 3662 1.00000000E-02
  1 266 3709 1.00000000E-02
  1 268 3837 1.00000000E-02
  1 271 3680 1.00000000E-02
  1 272 3722 1.00000000E-02
  1 277 3634 1.00000000E-02
  1 281 3733 1.00000000E-02
  1 282 3760 1.00000000E-02
  1 293 3662 1.00000000E-02
  1 294 3810 1.00000000E-02
  1 295 3816 1.00000000E-02
  1 303 3638 1.00000000E-02
  1 304 3740 1.00000000E-02
  1 308 3837 1.00000000E-02
  1 313 3744 1.00000000E-02
  1 315 3662 1.00000000E-02
  1 316 3653 1.00000000E-02
  1 319 3644 1.00000000E-02
  1 338 3816 1.00000000E-02
  1 347 3757 1.00000000E-02
  1 351 3845 1.00000000E-02
  1 358 3817 1.00000000E-02
  1 361 3728 1.00000000E-02
  1 374 3645 1.00000000E-02
  1 376 3666 1.00000000E-02
  1 380 3759 1.00000000E-02
  1 383 3807 1.00000000E-02
  1 385 3830 1.00000000E-02
  1 386 3753 1.00000000E-02
  1 387 3663 1.00000000E-02
  1 388 3845 1.00000000E-02
  1 390 3853 1.00000000E-02
  1 395 3721 1.00000000E-02
  1 397 3847 1.00000000E-02
  1 400 3683 1.00000000E-02
  1 408 3717 1.00000000E-02
  1 409 3679 1.00000000E-02
  1 410 3760 1.00000000E-02
  1 411 3794 1.00000000E-02
  1 416 3646 1.00000000E-02
  1 423 3866 1.00000000E-02
  1 424 3724 1.00000000E-02
  1 431 3862 1.00000000E-02
  1 433 3791 1.00000000E-02
  1 440 3705 1.00000000E-02
  1 442 3769 1.00000000E-02
  1 446 3769 1.00000000E-02
  1 449 3730 1.00000000E-02
  1 451 3765 1.00000000E-02
  1 457 3862 1.00000000E-02
  1 464 3856 1.00000000E-02
  1 465 3762 1.00000000E-02
  1 466 3766 1.00000000E-02
  1 468 3643 1.00000000E-02
  1 472 3690 1.00000000E-02
  1 476 3777 1.00000000E-02
  1 477 3759 1.00000000E-02
  1 480 3740 1.00000000E-02
  1 482 3690 1.00000000E-02
  1 484 3743 1.00000000E-02
  1 485 3880 1.00000000E-02
  1 489 3738 1.00000000E-02
  1 493 3759 1.00000000E-02
  1 500 3875 1.00000000E-02
  1 501 3928 1.00000000E-02
  1 502 3770 1.00000000E-02
  1 506 3647 1.00000000E-02
  1 508 3781 1.00000000E-02
  1 509 3756 1.00000000E-02
  1 511 3892 1.00000000E-02
  1 513 3710 1.00000000E-02
  1 518 3988 1.00000000E-02
  1 521 3878 1.00000000E-02
  1 527 3716 1.00000000E-02
  1 531 3771 1.00000000E-02
  1 545 3766 1.00000000E-02
  1 552 3894 1.00000000E-02
  1 559 3891 1.00000000E-02
  1 561 3650 1.00000000E-02
  1 564 3786 1.00000000E-02
  1 573 3787 1.00000000E-02
  1 574 3790 1.00000000E-02
  1 579 3908 1.00000000E-02
  1 581 3783 1.00000000E-02
  1 585 3726 1.00000000E-02
  1 596 3908 1.00000000E-02
  1 598 3936 1.00000000E-02
  1 603 3790 1.00000000E-02
  1 614 3790 1.00000000E-02
  1 616 3915 1.00000000E-02
  1 618 3922 1.00000000E-02
  1 619 3923 1.00000000E-02
  1 620 3923 1.00000000E-02
  1 623 3944 1.00000000E-02
  1 626 3652 1.00000000E-02
  1 628 3734 1.00000000E-02
  1 639 3930 1.00000000E-02
  1 649 3922 1.00000000E-02
  1 651 3939 1.00000000E-02
  1 653 3932 1.00000000E-02
  1 655 3808 1.00000000E-02
  1 660 3992 1.00000000E-02
  1 663 3955 1.00000000E-02
  1 665 3991 1.00000000E-02
  1 666 4000 1.00000000E-02
  1 670 3652 1.00000000E-02
  1 672 3931 1.00000000E-02
  1 673 3987 1.00000000E-02
  1 675 3931 1.00000000E-02
  1 680 4009 1.00000000E-02
  1 684 3955 1.00000000E-02
  1 685 3932 1.00000000E-02
  1 690 4010 1.00000000E-02
  1 696 3955 1.00000000E-02
  1 698 3974 1.00000000E-02
  1 702 3972 1.00000000E-02
  1 706 4011 1.00000000E-02
  1 707 4017 1.00000000E-02
  1 708 4017 1.00000000E-02
  1 711 3959 1.00000000E-02
  1 713 4020 1.00000000E-02
  1 717 3964 1.00000000E-02
  1 720 3971 1.00000000E-02
  1 730 3654 1.00000000E-02
  1 731 3661 1.00000000E-02
  1 735 3820 1.00000000E-02
  1 747 4019 1.00000000E-02
  1 753 4020 1.00000000E-02
  1 759 3821 1.00000000E-02
  1 790 3757 1.00000000E-02
  1 792 3662 1.00000000E-02
  1 814 3753 1.00000000E-02
  1 818 3830 1.00000000E-02
  1 823 3828 1.00000000E-02
  1 829 3828 1.00000000E-02
  1 831 3828 1.00000000E-02
  1 852 3764 1.00000000E-02
  1 865 3840 1.00000000E-02
  1 893 3836 1.00000000E-02
  1 894 3840 1.00000000E-02
  1 898 3836 1.00000000E-02
  1 916 3836 1.00000000E-02
  1 918 3668 1.00000000E-02
  1 925 3836 1.00000000E-02
  1 932 3771 1.00000000E-02
  1 946 3845 1.00000000E-02
  1 954 3845 1.00000000E-02
  1 960 3668 1.00000000E-02
  1 967 3845 1.00000000E-02
  1 968 3837 1.00000000E-02
  1 970 3839 1.00000000E-02
  1 993 3886 1.00000000E-02
  1 994 3875 1.00000000E-02
  1 999 3850 1.00000000E-02
  1 1015 3781 1.00000000E-02
  1 1025 3830 1.00000000E-02
  1 1026 3830 1.00000000E-02
  1 1028 3830 1.00000000E-02
  1 1038 3671 1.00000000E-02
  1 1054 3850 1.00000000E-02
  1 1056 3858 1.00000000E-02
  1 1059 3828 1.00000000E-02
  1 1064 3780 1.00000000E-02
  1 1067 3678 1.00000000E-02
  1 1073 3828 1.00000000E-02
  1 1082 3830 1.00000000E-02
  1 1087 3869 1.00000000E-02
  1 1088 3858 1.00000000E-02
  1 1091 3853 1.00000000E-02
  1 1093 3840 1.00000000E-02
  1 1139 3840 1.00000000E-02
  1 1140 3840 1.00000000E-02
  1 1143 3843 1.00000000E-02
  1 1144 3853 1.00000000E-02
  1 1159 3853 1.00000000E-02
  1 1161 3860 1.00000000E-02
  1 1166 3854 1.00000000E-02
  1 1167 3855 1.00000000E-02
  1 1168 3786 1.00000000E-02
  1 1177 3854 1.00000000E-02
  1 1180 3860 1.00000000E-02
  1 1189 3811 1.00000000E-02
  1 1201 3874 1.00000000E-02
  1 1205 3855 1.00000000E-02
  1 1208 3849 1.00000000E-02
  1 1210 3855 1.00000000E-02
  1 1213 3861 1.00000000E-02
  1 1214 3855 1.00000000E-02
  1 1234 3861 1.00000000E-02
  1 1243 3865 1.00000000E-02
  1 1245 3790 1.00000000E-02
  1 1269 3917 1.00000000E-02
  1 1271 3861 1.00000000E-02
  1 1275 3779 1.00000000E-02
  1 1276 3858 1.00000000E-02
  1 1290 3878 1.00000000E-02
  1 1297 3877 1.00000000E-02
  1 1298 3875 1.00000000E-02
  1 1304 3869 1.00000000E-02
  1 1309 3786 1.00000000E-02
  1 1310 3866 1.00000000E-02
  1 1311 3863 1.00000000E-02
  1 1315 3878 1.00000000E-02
  1 1325 3878 1.00000000E-02
  1 1330 3895 1.00000000E-02
  1 1370 3892 1.00000000E-02
  1 1379 3788 1.00000000E-02
  1 1382 3895 1.00000000E-02
  1 1387 3902 1.00000000E-02
  1 1404 3895 1.00000000E-02
  1 1406 3895 1.00000000E-02
  1 1420 3799 1.00000000E-02
  1 1427 3891 1.00000000E-02
  1 1452 3800 1.00000000E-02
  1 1455 3895 1.00000000E-02
  1 1477 3908 1.00000000E-02
  1 1485 3890 1.00000000E-02
  1 1491 3908 1.00000000E-02
  1 1495 3899 1.00000000E-02
  1 1496 3809 1.00000000E-02
  1 1516 3927 1.00000000E-02
  1 1530 3915 1.00000000E-02
  1 1546 3906 1.00000000E-02
  1 1547 3927 1.00000000E-02
  1 1555 3812 1.00000000E-02
  1 1558 3925 1.00000000E-02
  1 1623 3925 1.00000000E-02
  1 1624 3925 1.00000000E-02
  1 1641 3940 1.00000000E-02
  1 1645 3921 1.00000000E-02
  1 1646 3925 1.00000000E-02
  1 1649 3918 1.00000000E-02
  1 1651 3822 1.00000000E-02
  1 1655 3919 1.00000000E-02
  1 1660 3925 1.00000000E-02
  1 1674 3931 1.00000000E-02
  1 1679 3926 1.00000000E-02
  1 1683 3930 1.00000000E-02
  1 1686 3939 1.00000000E-02
  1 1696 3947 1.00000000E-02
  1 1702 3925 1.00000000E-02
  1 1703 3926 1.00000000E-02
  1 1721 3936 1.00000000E-02
  1 1724 3948 1.00000000E-02
  1 1728 3936 1.00000000E-02
  1 1734 3936 1.00000000E-02
  1 1737 3932 1.00000000E-02
  1 1738 3832 1.00000000E-02
  1 1761 3850 1.00000000E-02
  1 1766 3941 1.00000000E-02
  1 1769 3955 1.00000000E-02
  1 1801 3833 1.00000000E-02
  1 1803 3933 1.00000000E-02
  1 1811 3967 1.00000000E-02
  1 1812 3938 1.00000000E-02
  1 1838 3934 1.00000000E-02
  1 1843 3981 1.00000000E-02
  1 1853 3844 1.00000000E-02
  1 1901 3946 1.00000000E-02
  1 1906 3855 1.00000000E-02
  1 1909 3978 1.00000000E-02
  1 1910 3973 1.00000000E-02
  1 1914 4003 1.00000000E-02
  1 1940 3934 1.00000000E-02
  1 1953 3986 1.00000000E-02
  1 1978 3962 1.00000000E-02
  1 1979 4005 1.00000000E-02
  1 1981 3873 1.00000000E-02
  1 1987 4027 1.00000000E-02
  1 1989 3991 1.00000000E-02
  1 1995 3941 1.00000000E-02
  1 1998 3986 1.00000000E-02
  1 2004 4019 1.00000000E-02
  1 2006 3876 1.00000000E-02
  1 2027 3981 1.00000000E-02
  1 2030 4034 1.00000000E-02
  1 2033 3986 1.00000000E-02
  1 2035 3997 1.00000000E-02
  1 2043 3993 1.00000000E-02
  1 2044 4031 1.00000000E-02
  1 2049 3876 1.00000000E-02
  1 2050 3948 1.00000000E-02
  1 2073 3984 1.00000000E-02
  1 2087 3998 1.00000000E-02
  1 2097 3893 1.00000000E-02
  1 2101 3993 1.00000000E-02
  1 2105 4030 1.00000000E-02
  1 2132 3890 1.00000000E-02
  1 2143 4035 1.00000000E-02
  1 2171 3902 1.00000000E-02
  1 2177 3953 1.00000000E-02
  1 2182 4000 1.00000000E-02
  1 2186 4010 1.00000000E-02
  1 2208 3909 1.00000000E-02
  1 2224 3954 1.00000000E-02
  1 2227 4038 1.00000000E-02
  1 2239 4045 1.00000000E-02
  1 2241 3963 1.00000000E-02
  1 2270 3922 1.00000000E-02
  1 2278 4001 1.00000000E-02
  1 2283 4051 1.00000000E-02
  1 2311 3970 1.00000000E-02
  1 2318 3929 1.00000000E-02
  1 2343 4059 1.00000000E-02
  1 2345 4006 1.00000000E-02
  1 2347 4007 1.00000000E-02
  1 2355 3975 1.00000000E-02
  1 2386 4025 1.00000000E-02
  1 2390 3928 1.00000000E-02
  1 2420 4065 1.00000000E-02
  1 2421 3981 1.00000000E-02
  1 2426 4066 1.00000000E-02
  1 2427 3928 1.00000000E-02
  1 2450 3937 1.00000000E-02
  1 2486 4072 1.00000000E-02
  1 2503 3992 1.00000000E-02
  1 2504 4029 1.00000000E-02
  1 2511 3946 1.00000000E-02
  1 2535 4081 1.00000000E-02
  1 2546 4000 1.00000000E-02
  1 2578 4033 1.00000000E-02
  1 2584 4011 1.00000000E-02
  1 2618 4081 1.00000000E-02
  1 2620 3956 1.00000000E-02
  1 2642 4037 1.00000000E-02
  1 2654 4011 1.00000000E-02
  1 2664 4079 1.00000000E-02
  1 2690 3986 1.00000000E-02
  1 2697 4036 1.00000000E-02
  1 2698 4082 1.00000000E-02
  1 2723 4009 1.00000000E-02
  1 2728 4085 1.00000000E-02
  1 2730 4004 1.00000000E-02
  1 2750 4041 1.00000000E-02
  1 2759 3993 1.00000000E-02
  1 2762 4104 1.00000000E-02
  1 2764 4021 1.00000000E-02
  1 2792 3999 1.00000000E-02
  1 2815 4057 1.00000000E-02
  1 2821 4035 1.00000000E-02
  1 2840 4047 1.00000000E-02
  1 2878 4105 1.00000000E-02
  1 2887 4078 1.00000000E-02
  1 2911 4002 1.00000000E-02
  1 2918 4111 1.00000000E-02
  1 2946 4043 1.00000000E-02
  1 2960 4078 1.00000000E-02
  1 2978 4060 1.00000000E-02
  1 2980 4013 1.00000000E-02
  1 2988 4108 1.00000000E-02
  1 3010 4057 1.00000000E-02
  1 3014 4021 1.00000000E-02
  1 3024 4114 1.00000000E-02
  1 3030 4080 1.00000000E-02
  1 3073 4068 1.00000000E-02
  1 3077 4088 1.00000000E-02
  1 3102 4124 1.00000000E-02
  1 3112 4025 1.00000000E-02
  1 3135 4129 1.00000000E-02
  1 3137 4096 1.00000000E-02
  1 3169 4089 1.00000000E-02
  1 3175 4091 1.00000000E-02
  1 3209 4029 1.00000000E-02
  1 3212 4121 1.00000000E-02
  1 3218 4100 1.00000000E-02
  1 3219 4093 1.00000000E-02
  1 3240 4122 1.00000000E-02
  1 3247 4037 1.00000000E-02
  1 3275 4125 1.00000000E-02
  1 3287 4101 1.00000000E-02
  1 3289 4107 1.00000000E-02
  1 3317 4045 1.00000000E-02
  1 3364 4054 1.00000000E-02
  1 3386 4119 1.00000000E-02
  1 3390 4141 1.00000000E-02
  1 3428 4105 1.00000000E-02
  1 3431 4144 1.00000000E-02
  1 3432 4123 1.00000000E-02
  1 3447 4062 1.00000000E-02
  1 3451 4114 1.00000000E-02
  1 3461 4144 1.00000000E-02
  1 3473 4117 1.00000000E-02
  1 3474 4087 1.00000000E-02
  1 3475 4071 1.00000000E-02
  1 3477 4151 1.00000000E-02
  1 3490 4126 1.00000000E-02
  1 3492 4158 1.00000000E-02
  1 3497 4090 1.00000000E-02
  1 3498 4092 1.00000000E-02
  1 3526 4170 1.00000000E-02
  1 3527 4168 1.00000000E-02
  1 3534 4135 1.00000000E-02
  1 3536 4086 1.00000000E-02
  1 3538 4130 1.00000000E-02
  1 3540 4180 1.00000000E-02
  1 3543 4085 1.00000000E-02
  1 3546 4085 1.00000000E-02
  1 3562 4145 1.00000000E-02
  1 3568 4147 1.00000000E-02
  1 1983 4000 1.00000000E+00
  1 2020 4000 1.00000000E+00
  1 2067 4000 1.00000000E+00
  1 2140 4000 1.00000000E+00
  1 2165 4000 1.00000000E+00
  1 2215 4000 1.00000000E+00
  2 2258 4000 1.00000000E+00
  2 2297 4000 1.00000000E+00
  2 2312 4000 1.00000000E+00
  2 2332 4000 1.00000000E+00
  2 2359 4000 1.00000000E+00
  2 2366 4000 1.00000000E+00
  2 2402 4000 1.00000000E+00
  1 2408 4000 1.00000000E+00
  2 2435 4000 1.00000000E+00
  2 2443 4000 1.00000000E+00
  1 2453 4000 1.00000000E+00
  1 2488 4000 1.00000000E+00
  2 2522 4000 1.00000000E+00
  1 2529 4000 1.00000000E+00
  2 2555 4000 1.00000000E+00
  1 2562 4000 1.00000000E+00
  1 2592 4000 1.00000000E+00
  2 2596 4000 1.00000000E+00
  2 2605 4000 1.00000000E+00
  1 2634 4000 1.00000000E+00
  1 2671 4000 1.00000000E+00
  1 2681 4000 1.00000000E+00
  1 2704 4000 1.00000000E+00
  2 2712 4000 1.00000000E+00
  2 2713 4000 1.00000000E+00
  2 2732 4000 1.00000000E+00
  2 2734 4000 1.00000000E+00
  2 2740 4000 1.00000000E+00
  2 2743 4000 1.00000000E+00
  2 2758 4000 1.00000000E+00
  2 2769 4000 1.00000000E+00
  2 2810 4000 1.00000000E+00
  2 2825 4000 1.00000000E+00
  2 2834 4000 1.00000000E+00
  2 2861 4000 1.00000000E+00
  2 2869 4000 1.00000000E+00
  2 2893 4000 1.00000000E+00
  2 2899 4000 1.00000000E+00
  2 2906 4000 1.00000000E+00
  3 2932 4000 1.00000000E+00
  3 2963 4000 1.00000000E+00
  3 2970 4000 1.00000000E+00
  3 2993 4000 1.00000000E+00
  3 3002 4000 1.00000000E+00
  4 3004 4000 1.00000000E+00
  3 3035 4000 1.00000000E+00
  4 3038 4000 1.00000000E+00
  4 3040 4000 1.00000000E+00
  4 3041 4000 1.00000000E+00
  4 3053 4000 1.00000000E+00
  4 3087 4000 1.00000000E+00
  4 3092 4000 1.00000000E+00
  4 3117 4000 1.00000000E+00
  4 3153 4000 1.00000000E+00
  4 3159 4000 1.00000000E+00
  5 3161 4000 1.00000000E+00
  4 3190 4000 1.00000000E+00
  4 3195 4000 1.00000000E+00
  5 3203 4000 1.00000000E+00
  5 3207 4000 1.00000000E+00
  5 3224 4000 1.00000000E+00
  4 3230 4000 1.00000000E+00
  5 3235 4000 1.00000000E+00
  5 3258 4000 1.00000000E+00
END period  2

BEGIN period  3
  1 1 3868 1.00000000E-02
  1 4 3793 1.00000000E-02
  1 19 3724 1.00000000E-02
  1 21 3714 1.00000000E-02
  1 34 3873 1.00000000E-02
  1 35 3919 1.00000000E-02
  1 36 3906 1.00000000E-02
  1 41 3875 1.00000000E-02
  1 52 3708 1.00000000E-02
  1 54 3835 1.00000000E-02
  1 55 3873 1.00000000E-02
  1 58 3872 1.00000000E-02
  1 59 3850 1.00000000E-02
  1 61 3837 1.00000000E-02
  1 62 3790 1.00000000E-02
  1 65 3863 1.00000000E-02
  1 71 3897 1.00000000E-02
  1 72 3863 1.00000000E-02
  1 74 3863 1.00000000E-02
  1 75 3837 1.00000000E-02
  1 76 3786 1.00000000E-02
  1 81 3842 1.00000000E-02
  1 82 3858 1.00000000E-02
  1 88 3701 1.00000000E-02
  1 92 3855 1.00000000E-02
  1 103 3789 1.00000000E-02
  1 104 3842 1.00000000E-02
  1 107 3837 1.00000000E-02
  1 108 3831 1.00000000E-02
  1 111 3707 1.00000000E-02
  1 122 3789 1.00000000E-02
  1 137 3703 1.00000000E-02
  1 139 3661 1.00000000E-02
  1 141 3824 1.00000000E-02
  1 143 3789 1.00000000E-02
  1 149 3693 1.00000000E-02
  1 159 3783 1.00000000E-02
  1 164 3815 1.00000000E-02
  1 182 3645 1.00000000E-02
  1 186 3643 1.00000000E-02
  1 193 3818 1.00000000E-02
  1 203 3778 1.00000000E-02
  1 207 3650 1.00000000E-02
  1 211 3818 1.00000000E-02
  1 213 3664 1.00000000E-02
  1 220 3678 1.00000000E-02
  1 223 3769 1.00000000E-02
  1 227 3646 1.00000000E-02
  1 234 3666 1.00000000E-02
  1 237 3813 1.00000000E-02
  1 248 3626 1.00000000E-02
  1 252 3637 1.00000000E-02
  1 255 3626 1.00000000E-02
  1 257 3814 1.00000000E-02
  1 260 3765 1.00000000E-02
  1 263 3665 1.00000000E-02
  1 264 3627 1.00000000E-02
  1 265 3662 1.00000000E-02
  1 266 3709 1.00000000E-02
  1 268 3837 1.00000000E-02
  1 271 3680 1.00000000E-02
  1 272 3722 1.00000000E-02
  1 277 3634 1.00000000E-02
  1 281 3733 1.00000000E-02