# File generated by Flopy version 3.9.2 on 04/07/2025 at 09:15:49.
BEGIN options
END options

BEGIN griddata
  strt  LAYERED
    INTERNAL  FACTOR  1.0
        3857.19467276    3923.46645828    3854.74045104    3779.03721430    3633.72468699    3808.66071526    3833.17391786    3676.75811229    3635.94118810    3633.74785557    3700.19616212    3696.29019937    3669.62552042    3702.94865968    3673.69093062    3692.84599578    3686.52908727    3741.23368688    3710.90800597    3775.73638143
        3701.20717641    3700.18098170    3780.56693231    3789.77787842    3784.05777296    3786.95831955    3793.92910465    3778.24672476    3832.47141177    3780.51815765    3824.99285985    3832.41579542    3851.53523643    3856.97255575    3901.06853974    3888.36295416    3952.41570261    3963.25361342    3921.71720712    3977.64008376
        3858.14750350    3990.91375124    3893.57644965    3996.37748208    3838.62626786    3852.72273717    4003.67847628    3777.36664979    3796.70754582    3844.86177358    3839.44483523    3695.43665509    3876.04903857    3825.02053736    3856.18943930    3817.39509039    3835.35879347    3855.20291603    3836.30120539    3835.12979481
        3824.46227736    3778.43775175    3818.66888708    3727.91384436    3846.43621589    3634.94736807    3679.70413515    3824.83960698    3830.28046459    3821.09192398    3872.39478255    3846.42813248    3867.45480716    3846.42706584    3825.54296217    3777.98554833    3892.35949199    3814.01412593    3633.70486746    3783.08102920
        3825.95487745    3841.55422621    3825.34237597    3733.05272109    3868.66079656    3858.13079265    3863.46031391    3688.65737761    3793.88031139    3886.59675727    3858.74944150    3838.62648099    3695.30596804    3854.27426821    3816.11101179    3867.58787245    3714.38526659    3687.10176300    3849.97255271    3901.62252729
        3843.51706798    3776.90064029    3777.47765789    3825.98413275    3937.67067580    3783.07181024    3821.10488430    3815.37323130    3843.53402548    3814.92656266    3694.32562936    3686.81069664    3633.72583534    3805.27759793    3818.17047179    3770.47170339    3633.59808119    3959.05762289    3637.76684647    3841.55856617
        3776.04706396    3776.62880782    3811.86319589    3864.47711247    3683.64114781    3785.97880626    3693.83171244    3836.25625220    3637.83310882    3881.86844907    3688.39436477    3752.42549387    3786.41428378    3775.43797302    3834.04055955    3810.01612838    3690.03059585    3633.76145119    3645.67341023    3801.65171307
        3810.97967110    3685.27211610    3775.20197929    3856.54026658    3823.97783110    3633.37116613    3673.45928785    3654.43518904    3680.70412467    3829.62492276    3674.82847816    3632.51128096    3681.71693417    3680.67729585    3788.26785104    3778.17987372    3790.73313625    3779.99315230    3770.10752477    3778.49197990
        3773.70316894    3808.48920305    3809.58817034    3809.86908101    3855.59732112    3972.23492237    3810.46401399    3981.80252550    3823.03311677    3990.55427274    3839.54022343    3998.03393929    3895.97964114    3866.02507874    4002.89089410    3996.40517490    3714.62626262    3830.62136597    3833.91128261    3807.15854482
        3809.16024644    3633.97280184    3649.24210928    3629.87591684    3661.16851595    3633.34722481    3633.08902758    3806.28354473    3632.76871179    3669.96676776    3826.96665051    3671.81805180    3809.45199645    3770.38035930    3874.86324238    3771.47678043    3688.66431860    3632.92531606    3650.45514686    3676.46866541
        3789.81847653    3805.47502170    3764.95807321    3641.68482974    3808.84341742    3764.28767242    3638.80628182    3769.40746123    3716.52620837    3818.60948993    3809.45758873    3717.98049715    3663.31034585    3808.36740408    3661.58781944    3631.06515391    3804.83101636    3667.29691333    3664.92880045    3668.76528955
        3759.67492279    3636.84563043    3762.43331326    3763.45626099    3629.06397532    3761.69915048    3634.89700940    3662.85077736    3807.68816542    3806.69563917    3796.70218214    3677.78445136    3628.36426456    3662.01331057    3642.84947244    3776.23422922    3808.80307629    3639.47090335    3657.21243474    3661.03391394
        3811.62634906    3762.65093839    3805.67496143    3719.85624651    3809.29077311    3918.09789572    3760.55606495    3627.82227449    3642.65748575    3662.90356124    3713.93959869    3629.09701696    3630.05742313    3637.82725665    3627.34415150    3804.89283566    3807.81286272    3711.97066305    3639.37623576    3761.61473222
        3658.10610137    3632.29817181    3661.23980803    3628.36995137    3659.81914006    3694.09598766    3629.65706454    3816.49798737    3751.20174770    3759.74647320    3668.15012709    3715.45871893    3652.40849631    3650.53845844    3803.98658618    3721.52353399    3631.53791920    3774.66768909    3762.26277051    3636.72632309
        3713.92087471    3760.32589572    3802.49055969    3638.76161162    3629.69808260    3816.29957780    3926.08271081    3824.80462415    3816.20321049    3716.89390900    3641.15373381    3766.26901151    3659.26048758    3804.40700257    3805.38070366    3798.96352864    3717.47333740    3758.80423044    3688.59716931    3722.26361381
        3824.97686482    3644.67641425    3630.31309162    3721.35991512    3664.17613452    3630.30460870    3659.57879137    3818.77786815    3657.39461199    3631.07543209    3706.52234716    3757.97604347    3726.65581245    3761.85473655    3658.15293910    3641.74531930    3728.97101751    3772.25208536    3634.52264067    3643.63064320
        3656.32806386    3717.93867132    3732.51550114    3774.57367904    3832.99088576    3949.74571354    3953.08322187    3839.54307359    3833.56880338    3957.59339987    3845.16693738    3972.27624460    3857.96435015    3876.48092938    3984.62584058    3984.89762593    3998.38168815    3803.24924073    3718.37172308    3654.56579403
        3631.83604820    3722.94561121    3710.32477242    3791.11983725    3749.78130078    3758.11244651    3758.48558380    3843.63738985    3827.98547950    3815.83043876    3826.73031681    3731.65540475    3737.37686398    3632.54818891    3719.15208632    3809.37947324    3784.01718496    3801.65109460    3757.01324471    3760.72787342
        3717.72419513    3731.22081198    3745.55151958    3641.58622471    3658.80449547    3646.63172368    3870.12443723    3804.21220853    3636.85779526    3832.83859922    3909.99677168    3764.96455372    3655.76098000    3635.39989597    3636.24891116    3657.21210718    3834.79090797    3755.20453350    3720.29979425    3758.44782634
        3779.52562232    3752.15001463    3791.84398744    3836.89081283    3809.63836909    3733.35755974    3651.43038080    3837.23486318    3911.67226081    3832.26169747    3835.53372160    3738.90729178    3915.72591436    3759.50046295    3718.10727018    3636.70674152    3830.83477322    3667.05040437    3658.63953725    3671.12751783
        3832.54061131    3662.16070982    3774.87366865    3803.53246341    3720.68336383    3844.06931136    3721.55440316    3717.95319665    3667.02856506    3757.72793085    3781.79054880    3839.14967652    3825.22181473    3773.46195952    3748.99590504    3639.44412216    3643.34329519    3674.08812134    3844.31126665    3935.00786728
        3761.58653716    3758.78351345    3842.13028032    3719.61977972    3718.39115312    3658.25358908    3838.52830218    3723.07094673    3839.55563503    3847.40478238    3844.59319266    3802.93820262    3778.12681435    3744.67772906    3760.16736737    3718.38905761    3748.17489216    3712.16089302    3680.98217372    3686.70724894
        3667.03685123    3755.14659373    3741.13661484    3845.43138892    3771.67603994    3757.35702525    3889.21541583    3942.09634991    3721.50248600    3791.01137358    3757.62694271    3906.73899850    3945.36588741    3890.53298957    3896.42578603    3848.43875671    3845.45433106    3718.67095668    3759.22352875    3641.50710844
        3642.64309812    3842.25540044    3769.24140233    3839.61313049    3759.02934783    3751.99518618    3732.45821879    3638.28213081    3731.42371699    3736.93719930    3765.51042154    3677.75191751    3670.92862257    3849.96489394    3855.64381527    3773.85683223    3745.18048657    3762.95104468    3811.03016152    3726.95786937
        3851.19590748    3677.75185030    3857.17280403    3740.05921910    3857.29133330    3765.50911193    3911.10883897    3698.06862597    3724.66043045    3694.81097701    3861.25050520    3783.98919145    3745.03963159    3927.81237205    3951.00995667    3898.98400897    3877.68249051    3869.84659474    3862.03982615    3858.12878371
        3911.61136347    3761.04741165    3851.60102321    3877.63401060    3854.27957177    3641.04003365    3671.90612922    3771.99145220    3742.20002881    3759.67091033    3870.21961296    3886.40746504    3690.96021647    3730.46828419    3778.57987331    3907.67087327    3971.24825149    3970.85521798    3682.64666068    3743.10359977
        3861.05131881    3874.02547682    3764.55381672    3752.85909297    3795.38609958    3958.55895245    3700.02010395    3930.45763190    3941.48161746    3904.83522472    3762.70426973    3867.83838351    3765.11662302    3950.79308150    3997.20625772    3978.10169445    3768.13714145    3745.12433154    3777.21750436    3779.16242697
        3824.89038865    3858.10505201    3644.43433189    3646.47426779    3751.88599252    3738.22316334    3761.21387992    3930.48677680    3894.20133036    3996.49239390    3892.26564786    3874.01927774    3864.78762245    3740.93970058    3747.96843933    3925.42805480    3996.44722946    3929.36372700    3873.73269557    3986.57805198
        3643.53921979    3639.89217764    3775.21904084    3771.36811091    3723.58220931    3815.63810343    3866.78915427    3948.83875746    3748.98819137    3701.88945835    3873.78999706    3742.22673396    3772.41157549    3775.30553151    3768.89151070    3769.40396287    3915.76494642    3869.52672685    3885.50986790    3676.77666373
        3768.56891592    3714.79518235    3778.22047676    3880.71576957    3707.32642727    3776.23384497    3877.34329186    3885.73971332    3837.69624193    3891.17573322    3757.70872965    3794.88297176    3880.86583546    3699.15646204    3641.74131216    3889.95448707    3898.11637438    3917.61120871    3975.32327967    3890.58597601
        3999.11638554    3996.39109515    3775.30576516    3883.99731845    3783.33521489    3890.56367839    3887.98206134    3902.98149881    3711.84177224    3649.12563110    3663.15117194    3771.45138020    3772.43133284    3775.65129739    3852.87037660    3894.91247241    3904.92972506    3903.45565232    3900.02541512    3905.79791910
        3757.70889972    3778.50460009    3925.40674693    3903.04175999    3903.02839931    3646.92473974    3647.04137599    3720.91157360    3678.72972760    3668.06117150    3753.52769730    3712.64686507    3737.40295086    3768.43809926    3780.33228534    3885.31147294    3781.10538069    3930.89740636    3911.79661099    3810.33637558
        3902.42191863    3793.08868357    3781.13182807    3791.82804381    3797.58063842    3802.33666647    3891.56430748    3804.04477527    3903.95490009    3862.58170514    3920.52790260    3844.57386266    3913.15912790    3768.46513944    3792.91666631    3944.98196385    3980.04626227    3942.19255550    3933.13052167    3971.34593127
        3983.30340459    3937.18265305    3937.26919685    3894.76809352    3967.59924317    3976.58023163    3899.34726295    3783.05953286    3940.23481549    3649.62941030    3651.12353421    3912.72700417    3964.03065966    3996.49392256    3912.73600709    3721.63639222    3647.53067928    3787.93309380    3807.45899741    3981.81865167
        3934.27752029    3937.59445338    3908.39373608    3936.13276904    3913.70209098    3909.61832488    3935.15517343    3921.52109578    3907.88886451    3996.46283294    3989.25656525    3915.17958542    3893.51010369    3912.50335650    3797.16220607    3936.14257748    3994.02105525    3954.65589749    3784.04315480    3928.40780826
        3991.85367762    3952.70302380    3863.53711170    3682.27344980    3760.70557034    3985.64939010    3994.86659578    3996.77466930    3944.71370734    3920.02593461    3940.03963809    3730.41701093    3988.74940642    3977.14855408    3929.94384223    3798.63192054    3944.90461650    3942.46950432    3973.83775779    3953.93254266
        3945.64672593    3651.66775545    3718.12160437    3668.97891978    3791.09096913    3793.77964876    3918.15620164    3905.39359442    3667.07512884    3652.52871187    3653.27308966    3981.07263558    3924.55289340    3793.78957233    3801.15713313    3924.02139889    3970.92717013    3915.98416926    3913.53601145    3927.73710580
        3922.18510009    3945.86973867    3943.19935475    3968.00044217    3998.54707637    4003.76573214    3992.48896961    3986.69491989    3922.87557927    3824.22307885    3944.91321669    3984.15340196    3988.17044691    3998.02657877    3802.31586732    3799.71489727    3802.50434066    3800.28664346    3803.59040142    3803.52709732
        3833.40284461    3809.80797725    3803.70985087    3804.04469292    3893.82867199    3933.51562622    3964.85345715    3653.04376320    3716.91474808    3953.52481132    3962.28771228    3843.27706903    3833.69483085    3793.77753788    3807.39224017    3727.24982043    3983.64588688    3804.98286050    3802.27651895    3979.39340968
        3806.30992592    3959.74591864    3952.52853220    4001.81688858    3994.58029915    3991.31304496    3657.37546669    3957.01151579    3808.46335188    3731.75648686    3976.79574106    3655.29577940    3741.56321608    3954.69380066    3997.25581116    3957.55759662    3937.17188385    3940.22405867    3993.36625306    3969.10096183
        3803.53931149    3793.79793438    3994.62523720    4003.15833393    3961.81423362    3881.57181038    3996.00498674    3960.65404654    3807.67746239    3800.17728244    3805.51315737    3845.18667229    3802.86014497    3737.18578309    3809.85416973    3805.34722382    3802.44986062    3809.48798876    3801.22953936    3803.03604843
        3802.56425255    3798.67612385    3812.38795708    3805.77727526    3804.50275076    3804.72615101    3807.48253997    3810.91627026    3809.31614622    3809.91276697    3810.94582986    3803.94007717    3812.70719884    3804.67970775    3812.10677717    3806.71974665    3819.68591035    3804.88950053    3809.37629432    3803.62036268
        3830.64968315    3806.20135748    3819.19217224    3793.78498422    3659.09190774    3800.61849671    3679.70754376    3804.57167026    3654.48958307    3809.50980462    3832.76787082    3739.37199547    3721.51091434    3809.41186822    3804.70862908    3799.64015499    3800.96439234    3809.10044734    3808.80693622    3804.70401579
        3811.86616559    3813.18708709    3814.04190695    3805.55259879    3816.97536703    3807.31353763    3816.40709922    3806.81360519    3819.13800757    3807.58305275    3815.23495832    3830.98400208    3736.05238265    3729.84716372    4027.03425866    4004.70187383    3813.27619473    3909.57773779    3805.10487579    3925.37402505
        3815.85652100    3806.30040640    3809.87646373    3864.51995307    3949.62167270    3742.42857757    3804.53436450    3808.41230074    3814.86677718    3808.56891664    3816.74930820    3818.32570470    3818.65520916    3817.24155325    3819.54206443    3819.91587745    3816.55443842    3819.44030031    3807.07441616    3813.35007165
        3813.28010480    3808.12453752    3807.75277874    3808.00676988    3829.49910919    3969.80327309    3661.70628678    3656.33966751    3980.44837538    4003.17892315    3987.71890806    3937.86532472    3808.97487168    3742.46129890    3742.43461198    3819.64672256    3659.44537109    3658.88481421    3812.62555301    3832.74052254
        3807.12190282    3831.80282221    3829.47623107    4014.65869326    3820.42570384    3969.04120776    3840.13072652    3815.23116521    3817.31808277    3786.27612244    3814.39948541    3745.38291167    3814.68427875    3811.59241088    3805.48736296    3815.52308260    3814.35953815    3817.09553482    3822.07538868    3819.08099918
        3823.29914179    3808.13962237    3824.51189427    3825.41897619    3808.69341685    3823.69541722    3809.43640786    3809.70077454    3832.10811010    3809.46234554    3810.08767923    3813.54225764    3820.12918117    3823.29059808    3814.67872252    3813.28940256    3824.99634561    3815.65825671    3699.92279912    3661.96087527
        3821.31331858    3820.33620116    3831.18567139    3833.12850350    3827.03043528    3822.56920260    3824.60483895    3821.15086944    3809.74699671    3823.24594846    3809.73910266    3810.46834359    3811.17406857    3814.21175347    3830.03293425    3746.18243250    3753.86839880    3751.45718456    3817.98469674    3821.25724345
        3813.30110313    3824.45826390    3853.79444017    3827.00776017    3829.70437103    3836.67733912    4001.68122136    3825.70012272    3982.64221212    3824.88449898    3824.81882043    4014.54563548    3868.85421308    3859.46740803    3829.88166034    3811.47992470    3845.45718967    3828.41097052    3827.10544077    3816.25915721
        3827.93087800    3749.51965122    3820.76930116    3845.45309933    3662.96275619    3663.47719013    3828.80363797    3814.60333933    3754.98542228    3823.85285117    3832.91724631    3823.34296988    3666.78317395    3820.37558079    3754.13753676    3823.67947135    3832.23296655    3824.48768786    3831.57288071    3834.12991495
        3834.52184784    3835.70163394    3830.65765157    3823.03360773    3814.27434817    3814.48848760    3814.25812015    3814.33092303    3812.17206627    3812.22812662    3812.54920432    3813.58845794    3822.84276216    3815.45339903    3816.46523224    3753.39945624    3830.97071856    3665.10045415    3827.48469765    3814.67490785
        3832.67940619    3819.71282245    3823.02875753    3812.28495367    3825.33314634    3833.70715839    3827.57281304    3833.52690838    3835.12380184    3836.56932197    3834.02367841    3831.07588398    3838.53093230    3829.11023587    3839.59081655    3831.14531978    3817.20425285    3816.16968122    3813.46009120    3665.50866151
        3825.95395721    3833.98778211    3672.12604320    3757.62376563    3837.22441497    3772.13321711    3669.51452029    3757.83919001    3828.10185714    3825.50465456    3817.20301551    3836.28918978    3814.01021240    3860.08203795    3827.62283714    3712.48800670    3770.43411821    3828.35313555    3840.29931011    3750.72925589
        3859.73306048    3814.75953172    3832.60392926    3839.87879446    3833.22171178    3837.52161529    3837.88400484    3832.92051807    3835.29982291    3817.44426414    3836.03605113    3817.40409683    3824.00897527    3826.93014922    3834.70786189    3824.19518608    3830.70513128    3824.10798709    3860.78471512    3825.95195322
        3828.02366190    3820.31906837    3846.40627826    3751.99842285    3831.83420515    3827.02058213    3822.07410879    3847.39419252    3829.37198681    3868.29688914    3695.30098040    3763.85361602    3668.27484028    3844.60272779    3672.40679232    3895.19939470    3769.92371801    3841.42868199    3831.27372301    3832.98350772
        3833.53235645    3827.46126544    3828.82046213    3839.63447732    3834.75858009    3848.14716753    3835.17567949    3840.16587552    3846.70150744    3839.21323824    3847.27663795    3847.08552523    3834.43731554    3841.29338628    3822.05938926    3835.70750467    3822.40870923    3821.20179688    3824.24499186    3824.98931749
        3842.29593442    3822.24504288    3827.33299978    3837.50220881    3824.12593287    3843.62942286    3838.22289494    3925.96108344    3827.77928865    3839.00400768    3780.15401401    3841.18914302    3847.87205908    3842.98803663    3847.91831878    3852.29871409    3840.53838591    3854.54295384    3838.12824325    3849.51060049
        3839.97222463    3821.60904440    3830.83065429    3827.06639070    3830.83287606    3837.65032747    3838.62579295    3763.50629019    3832.81234073    3953.95212175    3841.92220658    3838.62631090    3845.85851580    3831.07774516    3838.69635534    3853.43409603    3837.67064189    3839.63871546    3756.07130972    3841.04714888
        3822.01913372    3832.93092607    3772.29537831    3841.63771556    3737.34612245    3685.05907900    3841.73222898    3830.82941230    3776.78071381    3850.77312891    3849.56653457    3967.97174364    3844.59890846    3845.38197766    3846.64033716    3852.98279596    3854.30737862    3846.52043158    3859.19484171    3843.69193485
        3846.18015665    3830.84150608    3830.92588769    3843.91639892    3838.68458440    3837.65944206    3844.73977772    3833.14028219    3842.00899118    3838.63172324    3835.71125875    3857.50879858    3846.14321199    3838.72091546    3844.47610118    3835.80651545    3854.27225108    3849.35140173    3759.95493744    3847.62524159
        3810.34155242    3846.89361123    3856.22751867    3845.13015837    3850.41949910    3846.91172595    3847.55535451    3858.62739920    3848.74700477    3855.27410176    3859.93911622    3861.93871501    3854.31399124    3844.51898832    3844.72975553    3832.89404366    3833.69405570    3836.35421312    3849.35165693    3849.60786729
        3785.18604508    3849.52898544    3848.38931497    3844.62366525    3770.29315505    3861.22658833    3682.77297721    3856.77804812    3846.43605733    3848.40951138    3701.30458852    3790.36730988    3775.26151078    3771.36837123    3762.97257938    3852.21510380    3847.92730527    3848.47766300    3851.15845030    3851.81894977
        3976.26150516    3865.77462849    3849.14113374    3997.39698149    3844.49457430    4001.67117482    3864.36688394    3875.22341796    3899.09770458    3888.36416000    3844.57216712    3858.48663915    3844.48246284    3787.89937866    3764.78728747    3842.51690162    3849.28078413    3861.74748673    3857.00943376    3856.62651894
        3849.07567649    3849.56600037    3861.01762881    3850.73555343    3857.23945855    3864.09979285    3858.85441143    3858.20856291    3835.89955428    3853.28707650    3849.35146377    3846.46162090    3869.44178219    3857.56909132    3777.49787314    3865.45873504    3860.07612761    3858.12580324    3859.79321124    3787.99243101
        3860.09241121    3861.23610677    3869.09359358    3852.33333986    3767.85562487    3784.18866942    3777.30134378    3855.30527041    3771.36663948    3850.20649115    3851.66802326    3883.74421538    3849.36517152    3859.16295724    3852.83786900    3849.64762064    3862.48922182    3856.86196263    3858.48322965    3861.79603839
        3871.14818519    3869.45529690    3870.07221635    3870.80072709    3855.27390385    3846.43781563    3861.22141788    3852.29222805    3862.03050941    3863.13781452    3860.12837856    3860.58201707    3858.32605586    3855.11421551    3859.39108834    3864.74168976    3862.03936649    3867.49726359    3857.95095971    3768.76241381
        3856.43316717    3868.14108581    3863.12749644    3870.60174052    3865.04471829    3864.96258170    3771.46522075    3870.50899777    3889.80558155    3857.25749706    3892.49609065    3862.42852071    3872.20920939    3856.83300767    3859.43140531    3857.05777255    3860.45278257    3869.93388349    3867.59299555    3871.65222714
        3871.31620191    3866.09784724    3873.46872954    3868.62928507    3865.82467003    3862.38601283    3863.76583161    3862.53191072    3859.17315331    3874.71005731    3871.79276038    3914.94311142    3882.64225039    3869.86478737    3859.17444377    3870.30109775    3870.55533331    3861.23273150    3773.80774063    3866.34408261
        3731.47222508    3866.36926016    3865.85241214    3869.60672756    3865.42991154    3779.16054998    3885.63001175    3872.41526559    3868.10587752    3776.38667677    3863.69622791    3863.65200651    3871.13750304    3864.21062904    3874.19649897    3875.42814681    3872.00430592    3878.22616715    3876.37645863    3872.61468409
        3878.03425951    3873.60071476    3865.73992799    3868.23019898    3863.26561359    3871.63284631    3874.58540288    3876.45002353    3898.11840012    3889.36006835    3798.67894729    3873.07292519    3884.46923911    3881.71664932    3870.92609370    3868.60449995    3872.49422036    3889.33494067    3875.76832589    3785.52107682
        3871.31997603    3780.20545064    3868.98322514    3886.30534740    3866.61705154    3871.81482872    3873.77680316    3876.69518808    3955.22101583    3869.91793118    3877.78961654    3873.31659262    3874.26547546    3879.55390055    3866.43507229    3875.39365265    3876.70384908    3878.52114843    3881.75917252    3885.36015074
        3883.77588188    3875.64400111    3871.65280885    3881.71591828    3875.70646099    3876.84339710    3877.80696177    3890.31146255    3876.12125600    3883.45162555    3877.76286262    3785.07439304    3885.50854226    3872.19048698    3874.69970796    3890.33599641    3791.82917973    3977.43400453    3798.87319522    3785.98927280
        3878.39755712    3874.72439792    3874.08900043    3879.48268840    3876.15168301    3876.92481964    3879.22266421    3884.59123626    3880.27878656    3884.54235238    3887.38134979    3880.60494665    3887.46983416    3887.39704169    3881.16463439    3880.36196145    3878.33794031    3879.47421364    3879.22305673    3877.83145226
        3889.33510718    3854.58887976    3874.69051136    3883.71557744    3872.91962572    3877.97016970    3878.07230375    3886.41254321    3894.28960360    3875.83685765    3880.29773704    3880.86905619    3895.28608135    3886.45634739    3881.54513539    3793.78049312    3877.45869213    3883.89693285    3892.62927507    3877.61492822
        3882.07734153    3879.26012530    3886.21266884    3879.91262162    3888.36726321    3880.84464902    3889.72880742    3881.64623585    3887.72885369    3890.52052770    3878.63151406    3892.26514673    3891.98406761    3892.49684588    3885.64021889    3888.97442463    3884.53595118    3886.73642731    3787.89302126    3985.48455613
        3879.34125809    3800.64724587    3829.31603012    3794.39586318    3886.97493953    3885.46068302    3886.72154907    3882.59954826    3883.51540002    3897.12798319    3888.60882605    3900.91287177    3880.06450659    3879.51656622    3888.99899070    3882.47904469    3883.18397726    3884.14032280    3894.22198257    3885.96552320
        3887.00304275    3897.68528866    3899.67267213    3897.22678004    3890.66603673    3883.32613093    3893.23868456    3884.50598965    3886.23136255    3892.13913699    3901.32964833    3721.49126314    3806.30953077    3806.34154666    3796.74149857    3794.04559953    3798.87864426    3892.14624451    3889.24981215    3893.72749694
        3900.51974341    4000.72556664    3910.18719820    3920.22975161    4010.16716226    4016.77909469    3934.58646128    4022.04520796    3996.08348180    4011.16904647    4034.55371749    3893.96729881    3879.82859224    3891.80340055    3893.94852791    3894.20653800    3895.68474855    3882.17956136    3884.48718386    3908.09088694
        3918.10609632    3896.30870646    3896.16450517    3896.07841154    3811.34191612    3883.08358626    3884.41099660    3899.43208129    3884.93565069    3888.06128683    3895.43183835    3897.14173915    3901.08475064    3903.91849606    3897.75516284    3900.90441621    3901.06867035    3897.13292921    3894.39040362    3893.66618800
        3894.42311927    3899.13671952    3943.61472855    3885.95325255    3900.41252716    3900.93142456    3894.22089694    3815.75426271    3888.25529855    3889.06905880    3897.50664127    3948.66238049    3903.95608738    3896.74084214    3901.21619683    3895.39390375    3903.60609272    3916.78012241    3812.53102200    3900.55094392
        3884.50993101    3831.07840282    3894.46856379    3894.65604839    3915.66052939    3885.95546383    3899.41874852    3893.15606612    3904.03444264    3894.37718279    3903.92889518    3896.42522879    3899.68754016    3907.88260587    3907.83918696    3896.59658251    3905.10942717    3898.89707442    3900.55772705    3905.06851453
        3902.79634684    3905.09539494    3898.09260143    3914.15745706    3903.00318796    3907.26690936    3907.85270409    3901.51164548    3900.15106664    3887.20713429    3806.48151916    3888.92181164    3902.69434316    3904.95855896    3901.16487395    3902.01825864    3811.40221362    3903.39079775    3902.29144450    3907.03795669
        3888.91978699    3901.30142052    3897.38990016    3898.78704709    3900.11421995    3908.38455593    3901.84062193    3903.47789108    3911.28971864    3907.48818066    3910.95992921    3909.45520840    3909.53258548    3903.01710143    3903.28420433    3900.56819639    3920.84959006    3975.13803500    3907.86613131    3819.59514778
        3789.88370246    3813.51338857    3911.76445719    3908.70038400    3914.46746796    3904.72180046    3904.00339055    3906.95828360    3902.69556045    3920.70155193    3912.88325198    3970.06537474    3928.38237079    3978.09767395    3897.18932948    3927.64076848    3905.52706217    3905.00525280    3907.12209391    3909.69225408
        3907.26526704    3909.21824749    3908.22187235    3896.39259863    3891.01647773    3900.67456418    3907.28194009    3901.88929813    3902.82556779    3906.26761667    3911.51207695    3904.59940553    3906.36730766    3917.03416638    3914.03337571    3909.48637176    3913.84028187    3913.04002256    3913.15954364    3909.52219070