# File generated by Flopy version 3.9.2 on 04/07/2025 at 09:15:48.
BEGIN options
  TIME_UNITS  seconds
END options

BEGIN dimensions
  NPER  6
END dimensions

BEGIN perioddata
       1.00000000  1       1.00000000
  3.15360000E+07  1       1.00000000
  3.15360000E+07  1       1.00000000
  3.15360000E+07  1       1.00000000
  3.15360000E+07  1       1.00000000
  3.15360000E+07  1       1.00000000
END perioddata

