# File generated by Flopy version 3.9.2 on 04/07/2025 at 09:15:50.
BEGIN options
END options

BEGIN dimensions
  MAXBOUND  113
END dimensions

BEGIN period  1
  3 2 3.89384877E+03 3.00000000E-02
  1 3 3.87058070E+03 3.00000000E-02
  2 6 3.80703971E+03 3.00000000E-02
  1 8 3.68351233E+03 3.00000000E-02
  3 9 3.61663966E+03 3.00000000E-02
  2 11 3.69787809E+03 3.00000000E-02
  4 13 3.65528789E+03 3.00000000E-02
  3 14 3.69504433E+03 3.00000000E-02
  3 15 3.66105034E+03 3.00000000E-02
  2 16 3.68634736E+03 3.00000000E-02
  3 17 3.67378920E+03 3.00000000E-02
  5 18 3.72099978E+03 3.00000000E-02
  1 19 3.71249810E+03 3.00000000E-02
  6 20 3.74615256E+03 3.00000000E-02
  2 21 3.69787809E+03 3.00000000E-02
  3 23 3.76282195E+03 3.00000000E-02
  3 24 3.77819834E+03 3.00000000E-02
  1 25 3.79706849E+03 3.00000000E-02
  2 27 3.79094741E+03 3.00000000E-02
  3 29 3.82912888E+03 3.00000000E-02
  1 32 3.84347971E+03 3.00000000E-02
  2 35 3.88403012E+03 3.00000000E-02
  2 36 3.88121708E+03 3.00000000E-02
  5 37 3.90712333E+03 3.00000000E-02
  4 38 3.92061424E+03 3.00000000E-02
  5 40 3.94055964E+03 3.00000000E-02
  1 41 3.87056336E+03 3.00000000E-02
  6 42 3.95371341E+03 3.00000000E-02
  5 44 3.96611800E+03 3.00000000E-02
  6 47 3.97882155E+03 3.00000000E-02
  2 52 3.69168829E+03 3.00000000E-02
  1 55 3.86512916E+03 3.00000000E-02
  1 58 3.86512916E+03 3.00000000E-02
  1 60 3.84917408E+03 3.00000000E-02
  1 65 3.85969495E+03 3.00000000E-02
  1 70 3.83510291E+03 3.00000000E-02
  1 72 3.85426074E+03 3.00000000E-02
  2 138 3.61683965E+03 3.00000000E-02
  2 151 3.67476208E+03 3.00000000E-02
  5 175 3.98163647E+03 3.00000000E-02
  1 176 3.98775682E+03 3.00000000E-02
  5 185 3.63262345E+03 3.00000000E-02
  5 200 3.65022598E+03 3.00000000E-02
  3 337 3.98250334E+03 3.00000000E-02
  3 535 3.98068890E+03 3.00000000E-02
  2 602 3.98533733E+03 3.00000000E-02
  1 630 3.66904609E+03 3.00000000E-02
  2 724 3.66660354E+03 3.00000000E-02
  1 729 3.67235137E+03 3.00000000E-02
  2 745 3.98533733E+03 3.00000000E-02
  3 746 3.99873091E+03 3.00000000E-02
  2 784 3.99241422E+03 3.00000000E-02
  5 875 4.01738046E+03 3.00000000E-02
  3 876 3.99746775E+03 3.00000000E-02
  4 992 4.00685320E+03 3.00000000E-02
  1 1063 3.67700722E+03 3.00000000E-02
  1 1247 3.68821065E+03 3.00000000E-02
  2 1251 3.69871758E+03 3.00000000E-02
  2 1552 3.71162922E+03 3.00000000E-02
  5 1571 4.02712794E+03 3.00000000E-02
  2 1849 3.72823446E+03 3.00000000E-02
  4 1867 4.03579370E+03 3.00000000E-02
  3 2207 3.74243252E+03 3.00000000E-02
  4 2219 4.04356839E+03 3.00000000E-02
  4 2496 3.78512762E+03 3.00000000E-02
  4 2508 4.06417813E+03 3.00000000E-02
  6 2787 3.80489849E+03 3.00000000E-02
  4 2800 4.05204588E+03 3.00000000E-02
  4 2802 4.07262340E+03 3.00000000E-02
  6 3057 3.82414688E+03 3.00000000E-02
  4 3186 4.07021738E+03 3.00000000E-02
  5 3342 3.84387157E+03 3.00000000E-02
  4 3450 4.07501677E+03 3.00000000E-02
  3 3479 4.07741015E+03 3.00000000E-02
  4 3480 4.07980352E+03 3.00000000E-02
  4 3492 4.07980352E+03 3.00000000E-02
  5 3501 3.86021192E+03 3.00000000E-02
  4 3519 4.08020787E+03 3.00000000E-02
  4 3533 4.08251326E+03 3.00000000E-02
  4 3557 4.08872800E+03 3.00000000E-02
  5 3558 4.08952999E+03 3.00000000E-02
  5 3595 3.87741316E+03 3.00000000E-02
  6 3615 4.09545307E+03 3.00000000E-02
  8 3617 4.10479849E+03 3.00000000E-02
  5 3619 3.89259728E+03 3.00000000E-02
  9 3643 4.11420335E+03 3.00000000E-02
  6 3645 3.90609670E+03 3.00000000E-02
  3 3646 3.91931905E+03 3.00000000E-02
  4 3648 3.92997313E+03 3.00000000E-02
  5 3649 3.94043661E+03 3.00000000E-02
  6 3651 3.95196521E+03 3.00000000E-02
  7 3653 3.96428526E+03 3.00000000E-02
  7 3655 3.97596378E+03 3.00000000E-02
  6 3657 3.98583761E+03 3.00000000E-02
  6 3659 3.99376739E+03 3.00000000E-02
  5 3661 4.00136771E+03 3.00000000E-02
  5 3663 4.00887382E+03 3.00000000E-02
  6 3665 4.01564015E+03 3.00000000E-02
  5 3667 4.02258892E+03 3.00000000E-02
  6 3669 4.02934702E+03 3.00000000E-02
  10 3670 4.12299490E+03 3.00000000E-02
  9 3671 4.11463217E+03 3.00000000E-02
  5 3672 4.03619021E+03 3.00000000E-02
  5 3673 4.04321223E+03 3.00000000E-02
  5 3674 4.04991231E+03 3.00000000E-02
  5 3675 4.05693493E+03 3.00000000E-02
  5 3676 4.06380943E+03 3.00000000E-02
  5 3677 4.07008689E+03 3.00000000E-02
  6 3678 4.07605761E+03 3.00000000E-02
  6 3679 4.08205578E+03 3.00000000E-02
  8 3680 4.08940720E+03 3.00000000E-02
  9 3681 4.09915091E+03 3.00000000E-02
  9 3682 4.10699991E+03 3.00000000E-02
END period  1

BEGIN period  2
  3 2 3.89384877E+03 3.00000000E-02
  1 3 3.87058070E+03 3.00000000E-02
  2 6 3.80703971E+03 3.00000000E-02
  1 8 3.68351233E+03 3.00000000E-02
  3 9 3.61663966E+03 3.00000000E-02
  2 11 3.69787809E+03 3.00000000E-02
  4 13 3.65528789E+03 3.00000000E-02
  3 14 3.69504433E+03 3.00000000E-02
  3 15 3.66105034E+03 3.00000000E-02
  2 16 3.68634736E+03 3.00000000E-02
  3 17 3.67378920E+03 3.00000000E-02
  5 18 3.72099978E+03 3.00000000E-02
  1 19 3.71249810E+03 3.00000000E-02
  6 20 3.74615256E+03 3.00000000E-02
  2 21 3.69787809E+03 3.00000000E-02
  3 23 3.76282195E+03 3.00000000E-02
  3 24 3.77819834E+03 3.00000000E-02
  1 25 3.79706849E+03 3.00000000E-02
  2 27 3.79094741E+03 3.00000000E-02
  3 29 3.82912888E+03 3.00000000E-02
  1 32 3.84347971E+03 3.00000000E-02
  2 35 3.88403012E+03 3.00000000E-02
  2 36 3.88121708E+03 3.00000000E-02
  5 37 3.90712333E+03 3.00000000E-02
  4 38 3.92061424E+03 3.00000000E-02
  5 40 3.94055964E+03 3.00000000E-02
  1 41 3.87056336E+03 3.00000000E-02
  6 42 3.95371341E+03 3.00000000E-02
  5 44 3.96611800E+03 3.00000000E-02
  6 47 3.97882155E+03 3.00000000E-02
  2 52 3.69168829E+03 3.00000000E-02
  1 55 3.86512916E+03 3.00000000E-02
  1 58 3.86512916E+03 3.00000000E-02
  1 60 3.84917408E+03 3.00000000E-02
  1 65 3.85969495E+03 3.00000000E-02
  1 70 3.83510291E+03 3.00000000E-02
  1 72 3.85426074E+03 3.00000000E-02
  2 138 3.61683965E+03 3.00000000E-02
  2 151 3.67476208E+03 3.00000000E-02
  5 175 3.98163647E+03 3.00000000E-02
  1 176 3.98775682E+03 3.00000000E-02
  5 185 3.63262345E+03 3.00000000E-02
  5 200 3.65022598E+03 3.00000000E-02
  3 337 3.98250334E+03 3.00000000E-02
  3 535 3.98068890E+03 3.00000000E-02
  2 602 3.98533733E+03 3.00000000E-02
  1 630 3.66904609E+03 3.00000000E-02
  2 724 3.66660354E+03 3.00000000E-02
  1 729 3.67235137E+03 3.00000000E-02
  2 745 3.98533733E+03 3.00000000E-02
  3 746 3.99873091E+03 3.00000000E-02
  2 784 3.99241422E+03 3.00000000E-02
  5 875 4.01738046E+03 3.00000000E-02
  3 876 3.99746775E+03 3.00000000E-02
  4 992 4.00685320E+03 3.00000000E-02
  1 1063 3.67700722E+03 3.00000000E-02
  1 1247 3.68821065E+03 3.00000000E-02
  2 1251 3.69871758E+03 3.00000000E-02
  2 1552 3.71162922E+03 3.00000000E-02
  5 1571 4.02712794E+03 3.00000000E-02
  2 1849 3.72823446E+03 3.00000000E-02
  4 1867 4.03579370E+03 3.00000000E-02
  3 2207 3.74243252E+03 3.00000000E-02
  4 2219 4.04356839E+03 3.00000000E-02
  4 2496 3.78512762E+03 3.00000000E-02
  4 2508 4.06417813E+03 3.00000000E-02
  6 2787 3.80489849E+03 3.00000000E-02
  4 2800 4.05204588E+03 3.00000000E-02
  4 2802 4.07262340E+03 3.00000000E-02
  6 3057 3.82414688E+03 3.00000000E-02
  4 3186 4.07021738E+03 3.00000000E-02
  5 3342 3.84387157E+03 3.00000000E-02
  4 3450 4.07501677E+03 3.00000000E-02
  3 3479 4.07741015E+03 3.00000000E-02
  4 3480 4.07980352E+03 3.00000000E-02
  4 3492 4.07980352E+03 3.00000000E-02
  5 3501 3.86021192E+03 3.00000000E-02
  4 3519 4.08020787E+03 3.00000000E-02
  4 3533 4.08251326E+03 3.00000000E-02
  4 3557 4.08872800E+03 3.00000000E-02
  5 3558 4.08952999E+03 3.00000000E-02
  5 3595 3.87741316E+03 3.00000000E-02
  6 3615 4.09545307E+03 3.00000000E-02
  8 3617 4.10479849E+03 3.00000000E-02
  5 3619 3.89259728E+03 3.00000000E-02
  9 3643 4.11420335E+03 3.00000000E-02
  6 3645 3.90609670E+03 3.00000000E-02
  3 3646 3.91931905E+03 3.00000000E-02
  4 3648 3.92997313E+03 3.00000000E-02
  5 3649 3.94043661E+03 3.00000000E-02
  6 3651 3.95196521E+03 3.00000000E-02
  7 3653 3.96428526E+03 3.00000000E-02
  7 3655 3.97596378E+03 3.00000000E-02
  6 3657 3.98583761E+03 3.00000000E-02
  6 3659 3.99376739E+03 3.00000000E-02
  5 3661 4.00136771E+03 3.00000000E-02
  5 3663 4.00887382E+03 3.00000000E-02
  6 3665 4.01564015E+03 3.00000000E-02
  5 3667 4.02258892E+03 3.00000000E-02
  6 3669 4.02934702E+03 3.00000000E-02
  10 3670 4.12299490E+03 3.00000000E-02
  9 3671 4.11463217E+03 3.00000000E-02
  5 3672 4.03619021E+03 3.00000000E-02
  5 3673 4.04321223E+03 3.00000000E-02
  5 3674 4.04991231E+03 3.00000000E-02
  5 3675 4.05693493E+03 3.00000000E-02
  5 3676 4.06380943E+03 3.00000000E-02
  5 3677 4.07008689E+03 3.00000000E-02
  6 3678 4.07605761E+03 3.00000000E-02
  6 3679 4.08205578E+03 3.00000000E-02
  8 3680 4.08940720E+03 3.00000000E-02
  9 3681 4.09915091E+03 3.00000000E-02
  9 3682 4.10699991E+03 3.00000000E-02
END period  2

BEGIN period  3
  3 2 3.89384877E+03 3.00000000E-02
  1 3 3.87058070E+03 3.00000000E-02
  2 6 3.80703971E+03 3.00000000E-02
  1 8 3.68351233E+03 3.00000000E-02
  3 9 3.61663966E+03 3.00000000E-02
  2 11 3.69787809E+03 3.00000000E-02
  4 13 3.65528789E+03 3.00000000E-02
  3 14 3.69504433E+03 3.00000000E-02
  3 15 3.66105034E+03 3.00000000E-02
  2 16 3.68634736E+03 3.00000000E-02
  3 17 3.67378920E+03 3.00000000E-02
  5 18 3.72099978E+03 3.00000000E-02
  1 19 3.71249810E+03 3.00000000E-02
  6 20 3.74615256E+03 3.00000000E-02
  2 21 3.69787809E+03 3.00000000E-02
  3 23 3.76282195E+03 3.00000000E-02
  3 24 3.77819834E+03 3.00000000E-02
  1 25 3.79706849E+03 3.00000000E-02
  2 27 3.79094741E+03 3.00000000E-02
  3 29 3.82912888E+03 3.00000000E-02
  1 32 3.84347971E+03 3.00000000E-02
  2 35 3.88403012E+03 3.00000000E-02
  2 36 3.88121708E+03 3.00000000E-02
  5 37 3.90712333E+03 3.00000000E-02
  4 38 3.92061424E+03 3.00000000E-02
  5 40 3.94055964E+03 3.00000000E-02
  1 41 3.87056336E+03 3.00000000E-02
  6 42 3.95371341E+03 3.00000000E-02
  5 44 3.96611800E+03 3.00000000E-02
  6 47 3.97882155E+03 3.00000000E-02
  2 52 3.69168829E+03 3.00000000E-02
  1 55 3.86512916E+03 3.00000000E-02
  1 58 3.86512916E+03 3.00000000E-02
  1 60 3.84917408E+03 3.00000000E-02
  1 65 3.85969495E+03 3.00000000E-02
  1 70 3.83510291E+03 3.00000000E-02
  1 72 3.85426074E+03 3.00000000E-02
  2 138 3.61683965E+03 3.00000000E-02
  2 151 3.67476208E+03 3.00000000E-02
  5 175 3.98163647E+03 3.00000000E-02
  1 176 3.98775682E+03 3.00000000E-02
  5 185 3.63262345E+03 3.00000000E-02
  5 200 3.65022598E+03 3.00000000E-02
  3 337 3.98250334E+03 3.00000000E-02
  3 535 3.98068890E+03 3.00000000E-02
  2 602 3.98533733E+03 3.00000000E-02
  1 630 3.66904609E+03 3.00000000E-02
  2 724 3.66660354E+03 3.00000000E-02
  1 729 3.67235137E+03 3.00000000E-02
  2 745 3.98533733E+03 3.00000000E-02
  3 746 3.99873091E+03 3.00000000E-02
  2 784 3.99241422E+03 3.00000000E-02
  5 875 4.01738046E+03 3.00000000E-02
  3 876 3.99746775E+03 3.00000000E-02
  4 992 4.00685320E+03 3.00000000E-02
  1 1063 3.67700722E+03 3.00000000E-02
  1 1247 3.68821065E+03 3.00000000E-02
  2 1251 3.69871758E+03 3.00000000E-02
  2 1552 3.71162922E+03 3.00000000E-02
  5 1571 4.02712794E+03 3.00000000E-02
  2 1849 3.72823446E+03 3.00000000E-02
  4 1867 4.03579370E+03 3.00000000E-02
  3 2207 3.74243252E+03 3.00000000E-02
  4 2219 4.04356839E+03 3.00000000E-02
  4 2496 3.78512762E+03 3.00000000E-02
  4 2508 4.06417813E+03 3.00000000E-02
  6 2787 3.80489849E+03 3.00000000E-02
  4 2800 4.05204588E+03 3.00000000E-02
  4 2802 4.07262340E+03 3.00000000E-02
  6 3057 3.82414688E+03 3.00000000E-02
  4 3186 4.07021738E+03 3.00000000E-02
  5 3342 3.84387157E+03 3.00000000E-02
  4 3450 4.07501677E+03 3.00000000E-02
  3 3479 4.07741015E+03 3.00000000E-02
  4 3480 4.07980352E+03 3.00000000E-02
  4 3492 4.07980352E+03 3.00000000E-02
  5 3501 3.86021192E+03 3.00000000E-02
  4 3519 4.08020787E+03 3.00000000E-02
  4 3533 4.08251326E+03 3.00000000E-02
  4 3557 4.08872800E+03 3.00000000E-02
  5 3558 4.08952999E+03 3.00000000E-02
  5 3595 3.87741316E+03 3.00000000E-02
  6 3615 4.09545307E+03 3.00000000E-02
  8 3617 4.10479849E+03 3.00000000E-02
  5 3619 3.89259728E+03 3.00000000E-02
  9 3643 4.11420335E+03 3.00000000E-02
  6 3645 3.90609670E+03 3.00000000E-02
  3 3646 3.91931905E+03 3.00000000E-02
  4 3648 3.92997313E+03 3.00000000E-02
  5 3649 3.94043661E+03 3.00000000E-02
  6 3651 3.95196521E+03 3.00000000E-02
  7 3653 3.96428526E+03 3.00000000E-02
  7 3655 3.97596378E+03 3.00000000E-02
  6 3657 3.98583761E+03 3.00000000E-02
  6 3659 3.99376739E+03 3.00000000E-02
  5 3661 4.00136771E+03 3.00000000E-02
  5 3663 4.00887382E+03 3.00000000E-02
  6 3665 4.01564015E+03 3.00000000E-02
  5 3667 4.02258892E+03 3.00000000E-02
  6 3669 4.02934702E+03 3.00000000E-02
  10 3670 4.12299490E+03 3.00000000E-02
  9 3671 4.11463217E+03 3.00000000E-02
  5 3672 4.03619021E+03 3.00000000E-02
  5 3673 4.04321223E+03 3.00000000E-02
  5 3674 4.04991231E+03 3.00000000E-02
  5 3675 4.05693493E+03 3.00000000E-02
  5 3676 4.06380943E+03 3.00000000E-02
  5 3677 4.07008689E+03 3.00000000E-02
  6 3678 4.07605761E+03 3.00000000E-02
  6 3679 4.08205578E+03 3.00000000E-02
  8 3680 4.08940720E+03 3.00000000E-02
  9 3681 4.09915091E+03 3.00000000E-02
  9 3682 4.10699991E+03 3.00000000E-02
END period  3

BEGIN period  4
  3 2 3.89384877E+03 3.00000000E-02
  1 3 3.87058070E+03 3.00000000E-02
  2 6 3.80703971E+03 3.00000000E-02
  1 8 3.68351233E+03 3.00000000E-02
  3 9 3.61663966E+03 3.00000000E-02
  2 11 3.69787809E+03 3.00000000E-02
  4 13 3.65528789E+03 3.00000000E-02
  3 14 3.69504433E+03 3.00000000E-02
  3 15 3.66105034E+03 3.00000000E-02
  2 16 3.68634736E+03 3.00000000E-02
  3 17 3.67378920E+03 3.00000000E-02
  5 18 3.72099978E+03 3.00000000E-02
  1 19 3.71249810E+03 3.00000000E-02
  6 20 3.74615256E+03 3.00000000E-02
  2 21 3.69787809E+03 3.00000000E-02
  3 23 3.76282195E+03 3.00000000E-02
  3 24 3.77819834E+03 3.00000000E-02
  1 25 3.79706849E+03 3.00000000E-02
  2 27 3.79094741E+03 3.00000000E-02
  3 29 3.82912888E+03 3.00000000E-02
  1 32 3.84347971E+03 3.00000000E-02
  2 35 3.88403012E+03 3.00000000E-02
  2 36 3.88121708E+03 3.00000000E-02
  5 37 3.90712333E+03 3.00000000E-02
  4 38 3.92061424E+03 3.00000000E-02
  5 40 3.94055964E+03 3.00000000E-02
  1 41 3.87056336E+03 3.00000000E-02
  6 42 3.95371341E+03 3.00000000E-02
  5 44 3.96611800E+03 3.00000000E-02
  6 47 3.97882155E+03 3.00000000E-02
  2 52 3.69168829E+03 3.00000000E-02
  1 55 3.86512916E+03 3.00000000E-02
  1 58 3.86512916E+03 3.00000000E-02
  1 60 3.84917408E+03 3.00000000E-02
  1 65 3.85969495E+03 3.00000000E-02
  1 70 3.83510291E+03 3.00000000E-02
  1 72 3.85426074E+03 3.00000000E-02
  2 138 3.61683965E+03 3.00000000E-02
  2 151 3.67476208E+03 3.00000000E-02
  5 175 3.98163647E+03 3.00000000E-02
  1 176 3.98775682E+03 3.00000000E-02
  5 185 3.63262345E+03 3.00000000E-02
  5 200 3.65022598E+03 3.00000000E-02
  3 337 3.98250334E+03 3.00000000E-02
  3 535 3.98068890E+03 3.00000000E-02
  2 602 3.98533733E+03 3.00000000E-02
  1 630 3.66904609E+03 3.00000000E-02
  2 724 3.66660354E+03 3.00000000E-02
  1 729 3.67235137E+03 3.00000000E-02
  2 745 3.98533733E+03 3.00000000E-02
  3 746 3.99873091E+03 3.00000000E-02
  2 784 3.99241422E+03 3.00000000E-02
  5 875 4.01738046E+03 3.00000000E-02
  3 876 3.99746775E+03 3.00000000E-02
  4 992 4.00685320E+03 3.00000000E-02
  1 1063 3.67700722E+03 3.00000000E-02
  1 1247 3.68821065E+03 3.00000000E-02
  2 1251 3.69871758E+03 3.00000000E-02
  2 1552 3.71162922E+03 3.00000000E-02
  5 1571 4.02712794E+03 3.00000000E-02
  2 1849 3.72823446E+03 3.00000000E-02
  4 1867 4.03579370E+03 3.00000000E-02
  3 2207 3.74243252E+03 3.00000000E-02
  4 2219 4.04356839E+03 3.00000000E-02
  4 2496 3.78512762E+03 3.00000000E-02
  4 2508 4.06417813E+03 3.00000000E-02
  6 2787 3.80489849E+03 3.00000000E-02
  4 2800 4.05204588E+03 3.00000000E-02
  4 2802 4.07262340E+03 3.00000000E-02
  6 3057 3.82414688E+03 3.00000000E-02
  4 3186 4.07021738E+03 3.00000000E-02
  5 3342 3.84387157E+03 3.00000000E-02
  4 3450 4.07501677E+03 3.00000000E-02
  3 3479 4.07741015E+03 3.00000000E-02
  4 3480 4.07980352E+03 3.00000000E-02
  4 3492 4.07980352E+03 3.00000000E-02
  5 3501 3.86021192E+03 3.00000000E-02
  4 3519 4.08020787E+03 3.00000000E-02
  4 3533 4.08251326E+03 3.00000000E-02
  4 3557 4.08872800E+03 3.00000000E-02
  5 3558 4.08952999E+03 3.00000000E-02
  5 3595 3.87741316E+03 3.00000000E-02
  6 3615 4.09545307E+03 3.00000000E-02
  8 3617 4.10479849E+03 3.00000000E-02
  5 3619 3.89259728E+03 3.00000000E-02
  9 3643 4.11420335E+03 3.00000000E-02
  6 3645 3.90609670E+03 3.00000000E-02
  3 3646 3.91931905E+03 3.00000000E-02
  4 3648 3.92997313E+03 3.00000000E-02
  5 3649 3.94043661E+03 3.00000000E-02
  6 3651 3.95196521E+03 3.00000000E-02
  7 3653 3.96428526E+03 3.00000000E-02
  7 3655 3.97596378E+03 3.00000000E-02
  6 3657 3.98583761E+03 3.00000000E-02
  6 3659 3.99376739E+03 3.00000000E-02
  5 3661 4.00136771E+03 3.00000000E-02
  5 3663 4.00887382E+03 3.00000000E-02
  6 3665 4.01564015E+03 3.00000000E-02
  5 3667 4.02258892E+03 3.00000000E-02
  6 3669 4.02934702E+03 3.00000000E-02
  10 3670 4.12299490E+03 3.00000000E-02
  9 3671 4.11463217E+03 3.00000000E-02
  5 3672 4.03619021E+03 3.00000000E-02
  5 3673 4.04321223E+03 3.00000000E-02
  5 3674 4.04991231E+03 3.00000000E-02
  5 3675 4.05693493E+03 3.00000000E-02
  5 3676 4.06380943E+03 3.00000000E-02
  5 3677 4.07008689E+03 3.00000000E-02
  6 3678 4.07605761E+03 3.00000000E-02
  6 3679 4.08205578E+03 3.00000000E-02
  8 3680 4.08940720E+03 3.00000000E-02
  9 3681 4.09915091E+03 3.00000000E-02
  9 3682 4.10699991E+03 3.00000000E-02
END period  4

BEGIN period  5
  3 2 3.89384877E+03 3.00000000E-02
  1 3 3.87058070E+03 3.00000000E-02
  2 6 3.80703971E+03 3.00000000E-02
  1 8 3.68351233E+03 3.00000000E-02
  3 9 3.61663966E+03 3.00000000E-02
  2 11 3.69787809E+03 3.00000000E-02
  4 13 3.65528789E+03 3.00000000E-02
  3 14 3.69504433E+03 3.00000000E-02
  3 15 3.66105034E+03 3.00000000E-02
  2 16 3.68634736E+03 3.00000000E-02
  3 17 3.67378920E+03 3.00000000E-02
  5 18 3.72099978E+03 3.00000000E-02
  1 19 3.71249810E+03 3.00000000E-02
  6 20 3.74615256E+03 3.00000000E-02
  2 21 3.69787809E+03 3.00000000E-02
  3 23 3.76282195E+03 3.00000000E-02
  3 24 3.77819834E+03 3.00000000E-02
  1 25 3.79706849E+03 3.00000000E-02
  2 27 3.79094741E+03 3.00000000E-02
  3 29 3.82912888E+03 3.00000000E-02
  1 32 3.84347971E+03 3.00000000E-02
  2 35 3.88403012E+03 3.00000000E-02
  2 36 3.88121708E+03 3.00000000E-02
  5 37 3.90712333E+03 3.00000000E-02
  4 38 3.92061424E+03 3.00000000E-02
  5 40 3.94055964E+03 3.00000000E-02
  1 41 3.87056336E+03 3.00000000E-02
  6 42 3.95371341E+03 3.00000000E-02
  5 44 3.96611800E+03 3.00000000E-02
  6 47 3.97882155E+03 3.00000000E-02
  2 52 3.69168829E+03 3.00000000E-02
  1 55 3.86512916E+03 3.00000000E-02
  1 58 3.86512916E+03 3.00000000E-02
  1 60 3.84917408E+03 3.00000000E-02
  1 65 3.85969495E+03 3.00000000E-02
  1 70 3.83510291E+03 3.00000000E-02
  1 72 3.85426074E+03 3.00000000E-02
  2 138 3.61683965E+03 3.00000000E-02
  2 151 3.67476208E+03 3.00000000E-02
  5 175 3.98163647E+03 3.00000000E-02
  1 176 3.98775682E+03 3.00000000E-02
  5 185 3.63262345E+03 3.00000000E-02
  5 200 3.65022598E+03 3.00000000E-02
  3 337 3.98250334E+03 3.00000000E-02
  3 535 3.98068890E+03 3.00000000E-02
  2 602 3.98533733E+03 3.00000000E-02
  1 630 3.66904609E+03 3.00000000E-02
  2 724 3.66660354E+03 3.00000000E-02
  1 729 3.67235137E+03 3.00000000E-02
  2 745 3.98533733E+03 3.00000000E-02
  3 746 3.99873091E+03 3.00000000E-02
  2 784 3.99241422E+03 3.00000000E-02
  5 875 4.01738046E+03 3.00000000E-02
  3 876 3.99746775E+03 3.00000000E-02
  4 992 4.00685320E+03 3.00000000E-02
  1 1063 3.67700722E+03 3.00000000E-02
  1 1247 3.68821065E+03 3.00000000E-02
  2 1251 3.69871758E+03 3.00000000E-02
  2 1552 3.71162922E+03 3.00000000E-02
  5 1571 4.02712794E+03 3.00000000E-02
  2 1849 3.72823446E+03 3.00000000E-02
  4 1867 4.03579370E+03 3.00000000E-02
  3 2207 3.74243252E+03 3.00000000E-02
  4 2219 4.04356839E+03 3.00000000E-02
  4 2496 3.78512762E+03 3.00000000E-02
  4 2508 4.06417813E+03 3.00000000E-02
  6 2787 3.80489849E+03 3.00000000E-02
  4 2800 4.05204588E+03 3.00000000E-02
  4 2802 4.07262340E+03 3.00000000E-02
  6 3057 3.82414688E+03 3.00000000E-02
  4 3186 4.07021738E+03 3.00000000E-02
  5 3342 3.84387157E+03 3.00000000E-02
  4 3450 4.07501677E+03 3.00000000E-02
  3 3479 4.07741015E+03 3.00000000E-02
  4 3480 4.07980352E+03 3.00000000E-02
  4 3492 4.07980352E+03 3.00000000E-02
  5 3501 3.86021192E+03 3.00000000E-02
  4 3519 4.08020787E+03 3.00000000E-02
  4 3533 4.08251326E+03 3.00000000E-02
  4 3557 4.08872800E+03 3.00000000E-02
  5 3558 4.08952999E+03 3.00000000E-02
  5 3595 3.87741316E+03 3.00000000E-02
  6 3615 4.09545307E+03 3.00000000E-02
  8 3617 4.10479849E+03 3.00000000E-02
  5 3619 3.89259728E+03 3.00000000E-02
  9 3643 4.11420335E+03 3.00000000E-02
  6 3645 3.90609670E+03 3.00000000E-02
  3 3646 3.91931905E+03 3.00000000E-02
  4 3648 3.92997313E+03 3.00000000E-02
  5 3649 3.94043661E+03 3.00000000E-02
  6 3651 3.95196521E+03 3.00000000E-02
  7 3653 3.96428526E+03 3.00000000E-02
  7 3655 3.97596378E+03 3.00000000E-02
  6 3657 3.98583761E+03 3.00000000E-02
  6 3659 3.99376739E+03 3.00000000E-02
  5 3661 4.00136771E+03 3.00000000E-02
  5 3663 4.00887382E+03 3.00000000E-02
  6 3665 4.01564015E+03 3.00000000E-02
  5 3667 4.02258892E+03 3.00000000E-02
  6 3669 4.02934702E+03 3.00000000E-02
  10 3670 4.12299490E+03 3.00000000E-02
  9 3671 4.11463217E+03 3.00000000E-02
  5 3672 4.03619021E+03 3.00000000E-02
  5 3673 4.04321223E+03 3.00000000E-02
  5 3674 4.04991231E+03 3.00000000E-02
  5 3675 4.05693493E+03 3.00000000E-02
  5 3676 4.06380943E+03 3.00000000E-02
  5 3677 4.07008689E+03 3.00000000E-02
  6 3678 4.07605761E+03 3.00000000E-02
  6 3679 4.08205578E+03 3.00000000E-02
  8 3680 4.08940720E+03 3.00000000E-02
  9 3681 4.09915091E+03 3.00000000E-02
  9 3682 4.10699991E+03 3.00000000E-02
END period  5

BEGIN period  6
  3 2 3.89384877E+03 3.00000000E-02
  1 3 3.87058070E+03 3.00000000E-02
  2 6 3.80703971E+03 3.00000000E-02
  1 8 3.68351233E+03 3.00000000E-02
  3 9 3.61663966E+03 3.00000000E-02
  2 11 3.69787809E+03 3.00000000E-02
  4 13 3.65528789E+03 3.00000000E-02
  3 14 3.69504433E+03 3.00000000E-02
  3 15 3.66105034E+03 3.00000000E-02
  2 16 3.68634736E+03 3.00000000E-02
  3 17 3.67378920E+03 3.00000000E-02
  5 18 3.72099978E+03 3.00000000E-02
  1 19 3.71249810E+03 3.00000000E-02
  6 20 3.74615256E+03 3.00000000E-02
  2 21 3.69787809E+03 3.00000000E-02
  3 23 3.76282195E+03 3.00000000E-02
  3 24 3.77819834E+03 3.00000000E-02
  1 25 3.79706849E+03 3.00000000E-02
  2 27 3.79094741E+03 3.00000000E-02
  3 29 3.82912888E+03 3.00000000E-02
  1 32 3.84347971E+03 3.00000000E-02
  2 35 3.88403012E+03 3.00000000E-02
  2 36 3.88121708E+03 3.00000000E-02
  5 37 3.90712333E+03 3.00000000E-02
  4 38 3.92061424E+03 3.00000000E-02
  5 40 3.94055964E+03 3.00000000E-02
  1 41 3.87056336E+03 3.00000000E-02
  6 42 3.95371341E+03 3.00000000E-02
  5 44 3.96611800E+03 3.00000000E-02
  6 47 3.97882155E+03 3.00000000E-02
  2 52 3.69168829E+03 3.00000000E-02
  1 55 3.86512916E+03 3.00000000E-02
  1 58 3.86512916E+03 3.00000000E-02
  1 60 3.84917408E+03 3.00000000E-02
  1 65 3.85969495E+03 3.00000000E-02
  1 70 3.83510291E+03 3.00000000E-02
  1 72 3.85426074E+03 3.00000000E-02
  2 138 3.61683965E+03 3.00000000E-02
  2 151 3.67476208E+03 3.00000000E-02
  5 175 3.98163647E+03 3.00000000E-02
  1 176 3.98775682E+03 3.00000000E-02
  5 185 3.63262345E+03 3.00000000E-02
  5 200 3.65022598E+03 3.00000000E-02
  3 337 3.98250334E+03 3.00000000E-02
  3 535 3.98068890E+03 3.00000000E-02
  2 602 3.98533733E+03 3.00000000E-02
  1 630 3.66904609E+03 3.00000000E-02
  2 724 3.66660354E+03 3.00000000E-02
  1 729 3.67235137E+03 3.00000000E-02
  2 745 3.98533733E+03 3.00000000E-02
  3 746 3.99873091E+03 3.00000000E-02
  2 784 3.99241422E+03 3.00000000E-02
  5 875 4.01738046E+03 3.00000000E-02
  3 876 3.99746775E+03 3.00000000E-02
  4 992 4.00685320E+03 3.00000000E-02
  1 1063 3.67700722E+03 3.00000000E-02
  1 1247 3.68821065E+03 3.00000000E-02
  2 1251 3.69871758E+03 3.00000000E-02
  2 1552 3.71162922E+03 3.00000000E-02
  5 1571 4.02712794E+03 3.00000000E-02
  2 1849 3.72823446E+03 3.00000000E-02
  4 1867 4.03579370E+03 3.00000000E-02
  3 2207 3.74243252E+03 3.00000000E-02
  4 2219 4.04356839E+03 3.00000000E-02
  4 2496 3.78512762E+03 3.00000000E-02
  4 2508 4.06417813E+03 3.00000000E-02
  6 2787 3.80489849E+03 3.00000000E-02
  4 2800 4.05204588E+03 3.00000000E-02
  4 2802 4.07262340E+03 3.00000000E-02
  6 3057 3.82414688E+03 3.00000000E-02
  4 3186 4.07021738E+03 3.00000000E-02
  5 3342 3.84387157E+03 3.00000000E-02
  4 3450 4.07501677E+03 3.00000000E-02
  3 3479 4.07741015E+03 3.00000000E-02
  4 3480 4.07980352E+03 3.00000000E-02
  4 3492 4.07980352E+03 3.00000000E-02
  5 3501 3.86021192E+03 3.00000000E-02
  4 3519 4.08020787E+03 3.00000000E-02
  4 3533 4.08251326E+03 3.00000000E-02
  4 3557 4.08872800E+03 3.00000000E-02
  5 3558 4.08952999E+03 3.00000000E-02
  5 3595 3.87741316E+03 3.00000000E-02
  6 3615 4.09545307E+03 3.00000000E-02
  8 3617 4.10479849E+03 3.00000000E-02
  5 3619 3.89259728E+03 3.00000000E-02
  9 3643 4.11420335E+03 3.00000000E-02
  6 3645 3.90609670E+03 3.00000000E-02
  3 3646 3.91931905E+03 3.00000000E-02
  4 3648 3.92997313E+03 3.00000000E-02
  5 3649 3.94043661E+03 3.00000000E-02
  6 3651 3.95196521E+03 3.00000000E-02
  7 3653 3.96428526E+03 3.00000000E-02
  7 3655 3.97596378E+03 3.00000000E-02
  6 3657 3.98583761E+03 3.00000000E-02
  6 3659 3.99376739E+03 3.00000000E-02
  5 3661 4.00136771E+03 3.00000000E-02
  5 3663 4.00887382E+03 3.00000000E-02
  6 3665 4.01564015E+03 3.00000000E-02
  5 3667 4.02258892E+03 3.00000000E-02
  6 3669 4.02934702E+03 3.00000000E-02
  10 3670 4.12299490E+03 3.00000000E-02
  9 3671 4.11463217E+03 3.00000000E-02
  5 3672 4.03619021E+03 3.00000000E-02
  5 3673 4.04321223E+03 3.00000000E-02
  5 3674 4.04991231E+03 3.00000000E-02
  5 3675 4.05693493E+03 3.00000000E-02
  5 3676 4.06380943E+03 3.00000000E-02
  5 3677 4.07008689E+03 3.00000000E-02
  6 3678 4.07605761E+03 3.00000000E-02
  6 3679 4.08205578E+03 3.00000000E-02
  8 3680 4.08940720E+03 3.00000000E-02
  9 3681 4.09915091E+03 3.00000000E-02
  9 3682 4.10699991E+03 3.00000000E-02
END period  6

