# File generated by Flopy version 3.9.2 on 04/07/2025 at 09:15:48.
BEGIN options
END options

BEGIN dimensions
  NLAY  15
  NCPL  3682
  NVERT  6168
END dimensions

BEGIN griddata
  top
    INTERNAL  FACTOR  1.0
      3868.00000000    3942.00000000    3871.00000000    3793.00000000    3619.00000000    3824.00000000    3854.00000000    3685.00000000    3647.00000000    3601.00000000    3713.00000000    3709.00000000    3698.00000000    3727.00000000    3688.00000000    3708.00000000    3699.00000000    3781.00000000    3724.00000000    3840.00000000
      3714.00000000    3713.00000000    3807.00000000    3810.00000000    3799.00000000    3802.00000000    3815.00000000    3792.00000000    3868.00000000    3795.00000000    3841.00000000    3855.00000000    3868.00000000    3873.00000000    3919.00000000    3906.00000000    3986.00000000    3989.00000000    3973.00000000    4027.00000000
      3875.00000000    4062.00000000    3923.00000000    4058.00000000    3853.00000000    3884.00000000    4091.00000000    3789.00000000    3812.00000000    3861.00000000    3855.00000000    3708.00000000    3893.00000000    3835.00000000    3873.00000000    3832.00000000    3843.00000000    3872.00000000    3850.00000000    3851.00000000
      3837.00000000    3790.00000000    3833.00000000    3754.00000000    3863.00000000    3646.00000000    3692.00000000    3834.00000000    3846.00000000    3837.00000000    3897.00000000    3863.00000000    3888.00000000    3863.00000000    3837.00000000    3786.00000000    3931.00000000    3839.00000000    3622.00000000    3798.00000000
      3842.00000000    3858.00000000    3841.00000000    3748.00000000    3896.00000000    3875.00000000    3882.00000000    3701.00000000    3823.00000000    3926.00000000    3886.00000000    3855.00000000    3708.00000000    3874.00000000    3829.00000000    3897.00000000    3734.00000000    3697.00000000    3866.00000000    3944.00000000
      3860.00000000    3789.00000000    3789.00000000    3842.00000000    3993.00000000    3798.00000000    3837.00000000    3831.00000000    3865.00000000    3829.00000000    3707.00000000    3699.00000000    3617.00000000    3832.00000000    3834.00000000    3788.00000000    3637.00000000    4037.00000000    3644.00000000    3865.00000000
      3788.00000000    3789.00000000    3825.00000000    3897.00000000    3693.00000000    3801.00000000    3709.00000000    3853.00000000    3649.00000000    3920.00000000    3703.00000000    3769.00000000    3801.00000000    3789.00000000    3853.00000000    3813.00000000    3703.00000000    3633.00000000    3661.00000000    3829.00000000
      3824.00000000    3693.00000000    3789.00000000    3887.00000000    3851.00000000    3637.00000000    3686.00000000    3666.00000000    3693.00000000    3845.00000000    3687.00000000    3643.00000000    3693.00000000    3693.00000000    3822.00000000    3793.00000000    3819.00000000    3799.00000000    3783.00000000    3793.00000000
      3788.00000000    3804.00000000    3808.00000000    3815.00000000    3873.00000000    4052.00000000    3824.00000000    4055.00000000    3839.00000000    4064.00000000    3859.00000000    4079.00000000    3919.00000000    3881.00000000    4078.00000000    4000.00000000    3727.00000000    3846.00000000    3842.00000000    3818.00000000
      3803.00000000    3645.00000000    3659.00000000    3629.00000000    3688.00000000    3643.00000000    3635.00000000    3824.00000000    3636.00000000    3682.00000000    3843.00000000    3681.00000000    3818.00000000    3785.00000000    3894.00000000    3786.00000000    3700.00000000    3643.00000000    3671.00000000    3710.00000000
      3807.00000000    3805.00000000    3778.00000000    3653.00000000    3810.00000000    3775.00000000    3650.00000000    3784.00000000    3717.00000000    3834.00000000    3818.00000000    3721.00000000    3664.00000000    3803.00000000    3671.00000000    3641.00000000    3813.00000000    3676.00000000    3690.00000000    3678.00000000
      3774.00000000    3642.00000000    3769.00000000    3775.00000000    3636.00000000    3773.00000000    3646.00000000    3661.00000000    3804.00000000    3796.00000000    3812.00000000    3689.00000000    3627.00000000    3666.00000000    3644.00000000    3791.00000000    3813.00000000    3650.00000000    3671.00000000    3672.00000000
      3824.00000000    3769.00000000    3801.00000000    3726.00000000    3817.00000000    3952.00000000    3762.00000000    3626.00000000    3654.00000000    3661.00000000    3725.00000000    3637.00000000    3632.00000000    3649.00000000    3626.00000000    3805.00000000    3814.00000000    3725.00000000    3641.00000000    3765.00000000
      3665.00000000    3638.00000000    3665.00000000    3627.00000000    3662.00000000    3709.00000000    3638.00000000    3837.00000000    3760.00000000    3756.00000000    3680.00000000    3722.00000000    3664.00000000    3662.00000000    3805.00000000    3728.00000000    3634.00000000    3789.00000000    3765.00000000    3647.00000000
      3733.00000000    3760.00000000    3810.00000000    3650.00000000    3630.00000000    3832.00000000    3951.00000000    3839.00000000    3832.00000000    3725.00000000    3643.00000000    3778.00000000    3662.00000000    3810.00000000    3816.00000000    3810.00000000    3720.00000000    3756.00000000    3701.00000000    3724.00000000
      3841.00000000    3656.00000000    3638.00000000    3740.00000000    3676.00000000    3630.00000000    3667.00000000    3837.00000000    3668.00000000    3634.00000000    3730.00000000    3774.00000000    3744.00000000    3766.00000000    3662.00000000    3653.00000000    3755.00000000    3784.00000000    3644.00000000    3655.00000000
      3668.00000000    3717.00000000    3745.00000000    3781.00000000    3846.00000000    3997.00000000    3976.00000000    3843.00000000    3849.00000000    3977.00000000    3855.00000000    3990.00000000    3872.00000000    3891.00000000    4004.00000000    4005.00000000    4044.00000000    3816.00000000    3717.00000000    3664.00000000
      3634.00000000    3749.00000000    3731.00000000    3801.00000000    3761.00000000    3754.00000000    3757.00000000    3845.00000000    3842.00000000    3837.00000000    3845.00000000    3763.00000000    3745.00000000    3638.00000000    3717.00000000    3825.00000000    3793.00000000    3817.00000000    3760.00000000    3765.00000000
      3728.00000000    3754.00000000    3776.00000000    3652.00000000    3662.00000000    3658.00000000    3883.00000000    3819.00000000    3648.00000000    3865.00000000    3926.00000000    3762.00000000    3667.00000000    3645.00000000    3644.00000000    3666.00000000    3847.00000000    3761.00000000    3717.00000000    3759.00000000
      3790.00000000    3760.00000000    3807.00000000    3879.00000000    3830.00000000    3753.00000000    3663.00000000    3845.00000000    3924.00000000    3853.00000000    3841.00000000    3746.00000000    3932.00000000    3761.00000000    3721.00000000    3639.00000000    3847.00000000    3679.00000000    3666.00000000    3683.00000000
      3856.00000000    3674.00000000    3773.00000000    3819.00000000    3734.00000000    3860.00000000    3720.00000000    3717.00000000    3679.00000000    3760.00000000    3794.00000000    3870.00000000    3856.00000000    3771.00000000    3758.00000000    3646.00000000    3649.00000000    3686.00000000    3860.00000000    3953.00000000
      3761.00000000    3759.00000000    3866.00000000    3724.00000000    3729.00000000    3670.00000000    3848.00000000    3729.00000000    3862.00000000    3864.00000000    3862.00000000    3820.00000000    3791.00000000    3751.00000000    3763.00000000    3722.00000000    3762.00000000    3730.00000000    3693.00000000    3705.00000000
      3679.00000000    3769.00000000    3748.00000000    3888.00000000    3769.00000000    3769.00000000    3906.00000000    3956.00000000    3730.00000000    3806.00000000    3765.00000000    3924.00000000    3964.00000000    3897.00000000    3912.00000000    3865.00000000    3862.00000000    3721.00000000    3794.00000000    3646.00000000
      3647.00000000    3865.00000000    3769.00000000    3856.00000000    3762.00000000    3766.00000000    3745.00000000    3643.00000000    3745.00000000    3748.00000000    3780.00000000    3690.00000000    3683.00000000    3881.00000000    3900.00000000    3777.00000000    3759.00000000    3760.00000000    3831.00000000    3740.00000000
      3880.00000000    3690.00000000    3874.00000000    3743.00000000    3880.00000000    3780.00000000    3929.00000000    3717.00000000    3738.00000000    3707.00000000    3876.00000000    3798.00000000    3759.00000000    3946.00000000    3970.00000000    3913.00000000    3895.00000000    3887.00000000    3879.00000000    3875.00000000
      3928.00000000    3770.00000000    3874.00000000    3895.00000000    3879.00000000    3647.00000000    3684.00000000    3781.00000000    3756.00000000    3774.00000000    3892.00000000    3904.00000000    3710.00000000    3744.00000000    3791.00000000    3925.00000000    3991.00000000    3988.00000000    3698.00000000    3757.00000000
      3878.00000000    3922.00000000    3779.00000000    3767.00000000    3809.00000000    3978.00000000    3716.00000000    3947.00000000    3960.00000000    3921.00000000    3771.00000000    3916.00000000    3773.00000000    3970.00000000    4022.00000000    3998.00000000    3779.00000000    3759.00000000    3792.00000000    3794.00000000
      3855.00000000    3881.00000000    3647.00000000    3649.00000000    3766.00000000    3752.00000000    3774.00000000    3949.00000000    3912.00000000    4004.00000000    3910.00000000    3894.00000000    3893.00000000    3753.00000000    3762.00000000    3944.00000000    4016.00000000    3948.00000000    3891.00000000    4011.00000000
      3650.00000000    3645.00000000    3785.00000000    3786.00000000    3737.00000000    3836.00000000    3888.00000000    3968.00000000    3763.00000000    3725.00000000    3899.00000000    3756.00000000    3787.00000000    3790.00000000    3783.00000000    3784.00000000    3934.00000000    3892.00000000    3908.00000000    3689.00000000
      3783.00000000    3727.00000000    3793.00000000    3929.00000000    3726.00000000    3791.00000000    3900.00000000    3916.00000000    3873.00000000    3924.00000000    3772.00000000    3809.00000000    3902.00000000    3719.00000000    3649.00000000    3908.00000000    3916.00000000    3936.00000000    3994.00000000    3908.00000000
      4019.00000000    4010.00000000    3790.00000000    3904.00000000    3796.00000000    3907.00000000    3909.00000000    3916.00000000    3734.00000000    3654.00000000    3675.00000000    3786.00000000    3787.00000000    3790.00000000    3898.00000000    3915.00000000    3923.00000000    3922.00000000    3923.00000000    3923.00000000
      3772.00000000    3793.00000000    3944.00000000    3921.00000000    3921.00000000    3652.00000000    3658.00000000    3734.00000000    3691.00000000    3680.00000000    3767.00000000    3723.00000000    3751.00000000    3783.00000000    3795.00000000    3928.00000000    3796.00000000    3949.00000000    3930.00000000    3826.00000000
      3918.00000000    3809.00000000    3796.00000000    3807.00000000    3809.00000000    3810.00000000    3913.00000000    3810.00000000    3922.00000000    3913.00000000    3939.00000000    3881.00000000    3932.00000000    3783.00000000    3808.00000000    3964.00000000    4005.00000000    3961.00000000    3951.00000000    3992.00000000
      4006.00000000    3956.00000000    3955.00000000    3913.00000000    3991.00000000    4000.00000000    3924.00000000    3798.00000000    3959.00000000    3652.00000000    3656.00000000    3931.00000000    3987.00000000    4012.00000000    3931.00000000    3735.00000000    3652.00000000    3803.00000000    3823.00000000    4009.00000000
      3953.00000000    3956.00000000    3934.00000000    3955.00000000    3932.00000000    3934.00000000    3954.00000000    3940.00000000    3941.00000000    4010.00000000    4009.00000000    3936.00000000    3922.00000000    3935.00000000    3811.00000000    3955.00000000    4012.00000000    3974.00000000    3799.00000000    3943.00000000
      4010.00000000    3972.00000000    3908.00000000    3697.00000000    3775.00000000    4011.00000000    4017.00000000    4017.00000000    3968.00000000    3945.00000000    3959.00000000    3744.00000000    4020.00000000    4007.00000000    3958.00000000    3814.00000000    3964.00000000    3964.00000000    4000.00000000    3971.00000000
      3965.00000000    3662.00000000    3741.00000000    3681.00000000    3806.00000000    3809.00000000    3943.00000000    3940.00000000    3679.00000000    3654.00000000    3661.00000000    4014.00000000    3948.00000000    3809.00000000    3820.00000000    3958.00000000    3996.00000000    3947.00000000    3954.00000000    3951.00000000
      3947.00000000    3966.00000000    3974.00000000    3989.00000000    4020.00000000    4042.00000000    4019.00000000    4020.00000000    3948.00000000    3842.00000000    3964.00000000    4020.00000000    4020.00000000    4017.00000000    3820.00000000    3815.00000000    3820.00000000    3812.00000000    3821.00000000    3819.00000000
      3860.00000000    3825.00000000    3818.00000000    3810.00000000    3934.00000000    3968.00000000    3984.00000000    3659.00000000    3742.00000000    3979.00000000    3980.00000000    3874.00000000    3861.00000000    3809.00000000    3830.00000000    3753.00000000    4016.00000000    3809.00000000    3818.00000000    4008.00000000
      3819.00000000    3979.00000000    3970.00000000    4034.00000000    4029.00000000    4036.00000000    3668.00000000    3977.00000000    3830.00000000    3757.00000000    4006.00000000    3662.00000000    3754.00000000    3972.00000000    4025.00000000    3984.00000000    3972.00000000    3969.00000000    4038.00000000    3997.00000000
      3819.00000000    3809.00000000    4032.00000000    4045.00000000    3989.00000000    3927.00000000    4027.00000000    3995.00000000    3829.00000000    3816.00000000    3823.00000000    3883.00000000    3818.00000000    3753.00000000    3828.00000000    3809.00000000    3818.00000000    3830.00000000    3815.00000000    3818.00000000
      3818.00000000    3814.00000000    3828.00000000    3826.00000000    3820.00000000    3826.00000000    3826.00000000    3829.00000000    3828.00000000    3830.00000000    3828.00000000    3812.00000000    3828.00000000    3812.00000000    3830.00000000    3819.00000000    3835.00000000    3812.00000000    3825.00000000    3818.00000000
      3861.00000000    3809.00000000    3835.00000000    3809.00000000    3668.00000000    3816.00000000    3692.00000000    3818.00000000    3656.00000000    3829.00000000    3861.00000000    3764.00000000    3755.00000000    3825.00000000    3820.00000000    3815.00000000    3816.00000000    3824.00000000    3824.00000000    3820.00000000
      3837.00000000    3837.00000000    3830.00000000    3809.00000000    3840.00000000    3819.00000000    3836.00000000    3820.00000000    3835.00000000    3814.00000000    3831.00000000    3861.00000000    3767.00000000    3760.00000000    4118.00000000    4040.00000000    3829.00000000    3956.00000000    3820.00000000    3972.00000000
      3841.00000000    3820.00000000    3831.00000000    3905.00000000    3990.00000000    3758.00000000    3820.00000000    3824.00000000    3840.00000000    3824.00000000    3841.00000000    3841.00000000    3836.00000000    3840.00000000    3840.00000000    3840.00000000    3836.00000000    3836.00000000    3813.00000000    3829.00000000
      3829.00000000    3814.00000000    3820.00000000    3814.00000000    3853.00000000    4006.00000000    3671.00000000    3660.00000000    4019.00000000    4062.00000000    4023.00000000    3983.00000000    3814.00000000    3756.00000000    3776.00000000    3836.00000000    3665.00000000    3668.00000000    3831.00000000    3853.00000000
      3820.00000000    3848.00000000    3848.00000000    4088.00000000    3836.00000000    4005.00000000    3862.00000000    3831.00000000    3840.00000000    3803.00000000    3837.00000000    3771.00000000    3829.00000000    3829.00000000    3821.00000000    3837.00000000    3834.00000000    3845.00000000    3853.00000000    3841.00000000
      3853.00000000    3813.00000000    3855.00000000    3855.00000000    3814.00000000    3845.00000000    3825.00000000    3825.00000000    3848.00000000    3818.00000000    3815.00000000    3829.00000000    3850.00000000    3845.00000000    3829.00000000    3828.00000000    3855.00000000    3834.00000000    3723.00000000    3668.00000000
      3850.00000000    3846.00000000    3870.00000000    3869.00000000    3855.00000000    3837.00000000    3845.00000000    3837.00000000    3825.00000000    3839.00000000    3815.00000000    3825.00000000    3823.00000000    3829.00000000    3848.00000000    3761.00000000    3793.00000000    3769.00000000    3840.00000000    3846.00000000
      3829.00000000    3839.00000000    3883.00000000    3841.00000000    3841.00000000    3853.00000000    4062.00000000    3836.00000000    4028.00000000    3836.00000000    3839.00000000    4081.00000000    3886.00000000    3875.00000000    3866.00000000    3821.00000000    3861.00000000    3850.00000000    3850.00000000    3843.00000000
      3858.00000000    3763.00000000    3840.00000000    3862.00000000    3671.00000000    3671.00000000    3866.00000000    3827.00000000    3807.00000000    3854.00000000    3868.00000000    3839.00000000    3677.00000000    3840.00000000    3781.00000000    3846.00000000    3869.00000000    3846.00000000    3866.00000000    3865.00000000
      3869.00000000    3869.00000000    3850.00000000    3839.00000000    3830.00000000    3830.00000000    3830.00000000    3830.00000000    3823.00000000    3821.00000000    3821.00000000    3821.00000000    3836.00000000    3830.00000000    3830.00000000    3767.00000000    3872.00000000    3671.00000000    3858.00000000    3830.00000000
      3866.00000000    3833.00000000    3839.00000000    3823.00000000    3852.00000000    3870.00000000    3854.00000000    3867.00000000    3876.00000000    3881.00000000    3865.00000000    3850.00000000    3881.00000000    3850.00000000    3881.00000000    3858.00000000    3833.00000000    3827.00000000    3828.00000000    3672.00000000
      3842.00000000    3858.00000000    3684.00000000    3780.00000000    3880.00000000    3826.00000000    3678.00000000    3790.00000000    3854.00000000    3852.00000000    3833.00000000    3876.00000000    3828.00000000    3877.00000000    3852.00000000    3743.00000000    3785.00000000    3852.00000000    3886.00000000    3762.00000000
      3871.00000000    3830.00000000    3863.00000000    3874.00000000    3863.00000000    3877.00000000    3869.00000000    3858.00000000    3858.00000000    3833.00000000    3853.00000000    3833.00000000    3840.00000000    3843.00000000    3846.00000000    3836.00000000    3838.00000000    3840.00000000    3868.00000000    3842.00000000
      3842.00000000    3836.00000000    3893.00000000    3765.00000000    3862.00000000    3843.00000000    3838.00000000    3893.00000000    3860.00000000    3884.00000000    3708.00000000    3801.00000000    3674.00000000    3885.00000000    3679.00000000    3913.00000000    3827.00000000    3886.00000000    3839.00000000    3862.00000000
      3862.00000000    3842.00000000    3842.00000000    3884.00000000    3863.00000000    3893.00000000    3863.00000000    3877.00000000    3893.00000000    3869.00000000    3885.00000000    3885.00000000    3853.00000000    3869.00000000    3838.00000000    3853.00000000    3838.00000000    3836.00000000    3840.00000000    3840.00000000
      3886.00000000    3838.00000000    3843.00000000    3853.00000000    3840.00000000    3886.00000000    3878.00000000    3959.00000000    3842.00000000    3872.00000000    3795.00000000    3874.00000000    3893.00000000    3884.00000000    3893.00000000    3904.00000000    3869.00000000    3902.00000000    3853.00000000    3892.00000000
      3860.00000000    3836.00000000    3847.00000000    3843.00000000    3847.00000000    3854.00000000    3855.00000000    3786.00000000    3849.00000000    4015.00000000    3874.00000000    3855.00000000    3878.00000000    3847.00000000    3882.00000000    3902.00000000    3854.00000000    3872.00000000    3770.00000000    3860.00000000
      3858.00000000    3844.00000000    3812.00000000    3872.00000000    3774.00000000    3696.00000000    3872.00000000    3847.00000000    3811.00000000    3896.00000000    3896.00000000    4027.00000000    3882.00000000    3882.00000000    3891.00000000    3906.00000000    3906.00000000    3878.00000000    3908.00000000    3860.00000000
      3874.00000000    3847.00000000    3847.00000000    3861.00000000    3855.00000000    3854.00000000    3858.00000000    3849.00000000    3858.00000000    3855.00000000    3852.00000000    3913.00000000    3861.00000000    3855.00000000    3861.00000000    3852.00000000    3894.00000000    3866.00000000    3774.00000000    3857.00000000
      3839.00000000    3893.00000000    3914.00000000    3883.00000000    3860.00000000    3882.00000000    3882.00000000    3913.00000000    3891.00000000    3906.00000000    3913.00000000    3908.00000000    3894.00000000    3861.00000000    3861.00000000    3849.00000000    3849.00000000    3852.00000000    3866.00000000    3866.00000000
      3846.00000000    3866.00000000    3865.00000000    3883.00000000    3790.00000000    3908.00000000    3692.00000000    3894.00000000    3883.00000000    3874.00000000    3712.00000000    3833.00000000    3790.00000000    3786.00000000    3777.00000000    3904.00000000    3893.00000000    3893.00000000    3909.00000000    3854.00000000
      4028.00000000    3880.00000000    3865.00000000    4056.00000000    3861.00000000    4056.00000000    3881.00000000    3891.00000000    3917.00000000    3906.00000000    3861.00000000    3914.00000000    3861.00000000    3808.00000000    3779.00000000    3858.00000000    3874.00000000    3909.00000000    3894.00000000    3906.00000000
      3890.00000000    3890.00000000    3913.00000000    3896.00000000    3912.00000000    3921.00000000    3912.00000000    3891.00000000    3852.00000000    3878.00000000    3866.00000000    3863.00000000    3881.00000000    3877.00000000    3792.00000000    3920.00000000    3877.00000000    3875.00000000    3882.00000000    3803.00000000
      3877.00000000    3924.00000000    3885.00000000    3869.00000000    3782.00000000    3799.00000000    3792.00000000    3868.00000000    3786.00000000    3866.00000000    3863.00000000    3900.00000000    3866.00000000    3891.00000000    3878.00000000    3893.00000000    3921.00000000    3903.00000000    3907.00000000    3909.00000000
      3933.00000000    3934.00000000    3931.00000000    3921.00000000    3878.00000000    3863.00000000    3881.00000000    3869.00000000    3879.00000000    3895.00000000    3877.00000000    3877.00000000    3875.00000000    3906.00000000    3903.00000000    3927.00000000    3879.00000000    3929.00000000    3920.00000000    3783.00000000
      3906.00000000    3885.00000000    3895.00000000    3895.00000000    3929.00000000    3882.00000000    3786.00000000    3887.00000000    3906.00000000    3874.00000000    3908.00000000    3881.00000000    3934.00000000    3906.00000000    3903.00000000    3903.00000000    3907.00000000    3921.00000000    3929.00000000    3934.00000000
      3921.00000000    3908.00000000    3921.00000000    3908.00000000    3895.00000000    3879.00000000    3880.00000000    3879.00000000    3876.00000000    3892.00000000    3889.00000000    3933.00000000    3899.00000000    3887.00000000    3876.00000000    3887.00000000    3887.00000000    3913.00000000    3788.00000000    3930.00000000
      3745.00000000    3895.00000000    3881.00000000    3933.00000000    3929.00000000    3794.00000000    3902.00000000    3889.00000000    3930.00000000    3791.00000000    3926.00000000    3926.00000000    3934.00000000    3927.00000000    3940.00000000    3948.00000000    3931.00000000    3950.00000000    3939.00000000    3921.00000000
      3939.00000000    3913.00000000    3895.00000000    3895.00000000    3880.00000000    3895.00000000    3913.00000000    3893.00000000    3916.00000000    3907.00000000    3814.00000000    3940.00000000    3902.00000000    3900.00000000    3892.00000000    3937.00000000    3895.00000000    3907.00000000    3893.00000000    3799.00000000
      3935.00000000    3795.00000000    3930.00000000    3901.00000000    3918.00000000    3889.00000000    3891.00000000    3950.00000000    3994.00000000    3885.00000000    3948.00000000    3939.00000000    3939.00000000    3947.00000000    3930.00000000    3943.00000000    3948.00000000    3928.00000000    3964.00000000    3957.00000000
      3946.00000000    3913.00000000    3892.00000000    3930.00000000    3893.00000000    3900.00000000    3900.00000000    3908.00000000    3893.00000000    3964.00000000    3895.00000000    3800.00000000    3903.00000000    3944.00000000    3895.00000000    3908.00000000    3807.00000000    4039.00000000    3814.00000000    3801.00000000
      3896.00000000    3944.00000000    3944.00000000    3959.00000000    3939.00000000    3939.00000000    3948.00000000    3962.00000000    3948.00000000    3964.00000000    3962.00000000    3939.00000000    3957.00000000    3946.00000000    3930.00000000    3908.00000000    3908.00000000    3900.00000000    3900.00000000    3895.00000000
      3907.00000000    3901.00000000    3951.00000000    3930.00000000    3890.00000000    3943.00000000    3895.00000000    3904.00000000    3912.00000000    3893.00000000    3908.00000000    3900.00000000    3913.00000000    3905.00000000    3899.00000000    3809.00000000    3952.00000000    3930.00000000    3959.00000000    3952.00000000
      3959.00000000    3949.00000000    3964.00000000    3949.00000000    3957.00000000    3952.00000000    3957.00000000    3954.00000000    3972.00000000    3973.00000000    3896.00000000    3970.00000000    3945.00000000    3945.00000000    3905.00000000    3927.00000000    3906.00000000    3905.00000000    3802.00000000    4039.00000000
      3954.00000000    3815.00000000    3854.00000000    3810.00000000    3905.00000000    3970.00000000    3904.00000000    3954.00000000    3901.00000000    3915.00000000    3906.00000000    3920.00000000    3952.00000000    3952.00000000    3972.00000000    3960.00000000    3960.00000000    3962.00000000    3970.00000000    3970.00000000
      3970.00000000    3988.00000000    3985.00000000    3959.00000000    3927.00000000    3906.00000000    3927.00000000    3906.00000000    3906.00000000    3925.00000000    3988.00000000    3733.00000000    3821.00000000    3821.00000000    3812.00000000    3809.00000000    3814.00000000    3925.00000000    3905.00000000    3918.00000000
      3918.00000000    4066.00000000    3928.00000000    3938.00000000    4070.00000000    4076.00000000    3953.00000000    4085.00000000    4018.00000000    4027.00000000    4120.00000000    3980.00000000    3949.00000000    3918.00000000    3940.00000000    3912.00000000    3913.00000000    3960.00000000    3967.00000000    3926.00000000
      3936.00000000    3914.00000000    3914.00000000    3988.00000000    3827.00000000    3960.00000000    3960.00000000    3985.00000000    3960.00000000    3970.00000000    3959.00000000    3980.00000000    3988.00000000    3985.00000000    3959.00000000    3969.00000000    3959.00000000    3940.00000000    3925.00000000    3918.00000000
      3918.00000000    3917.00000000    3962.00000000    3962.00000000    3917.00000000    3916.00000000    3978.00000000    3834.00000000    3967.00000000    3970.00000000    3914.00000000    3967.00000000    3922.00000000    3918.00000000    3959.00000000    3918.00000000    3969.00000000    3935.00000000    3833.00000000    3927.00000000
      3960.00000000    3847.00000000    3925.00000000    3925.00000000    3934.00000000    3970.00000000    3988.00000000    3976.00000000    3988.00000000    3976.00000000    3985.00000000    3987.00000000    3990.00000000    3991.00000000    3991.00000000    3940.00000000    3967.00000000    3927.00000000    3931.00000000    3967.00000000
      3940.00000000    3954.00000000    3990.00000000    3936.00000000    3921.00000000    3925.00000000    3926.00000000    3940.00000000    3918.00000000    3970.00000000    3822.00000000    3970.00000000    3922.00000000    3995.00000000    3919.00000000    3920.00000000    3827.00000000    3995.00000000    3927.00000000    3925.00000000
      3970.00000000    3991.00000000    3991.00000000    3991.00000000    3990.00000000    3994.00000000    3994.00000000    3994.00000000    3991.00000000    3978.00000000    3982.00000000    3976.00000000    3976.00000000    3931.00000000    3940.00000000    3931.00000000    3943.00000000    3995.00000000    3926.00000000    3844.00000000
      3805.00000000    3830.00000000    3930.00000000    3999.00000000    3936.00000000    3939.00000000    3927.00000000    3953.00000000    3927.00000000    3941.00000000    3998.00000000    3985.00000000    3947.00000000    3998.00000000    3983.00000000    3947.00000000    3999.00000000    3923.00000000    3932.00000000    3964.00000000
      3953.00000000    3925.00000000    3926.00000000    3983.00000000    3955.00000000    3991.00000000    3999.00000000    3991.00000000    3990.00000000    3936.00000000    3991.00000000    3994.00000000    3994.00000000    3999.00000000    3991.00000000    3976.00000000    3982.00000000    3964.00000000    3976.00000000    3953.00000000