# File generated by Flopy version 3.9.3 on 09/05/2025 at 16:06:11.
BEGIN options
  SAVE_FLOWS
END options

BEGIN packages
  DISV6  gwtModel.disv  disv
  IC6  gwtModel.ic  ic
  ADV6  gwtModel.adv  adv
  DSP6  gwtModel.dsp  dsp
  MST6  gwtModel.mst  mst
  SSM6  gwtModel.ssm  ssm
  CNC6  gwtModel.cnc  cnc_0
  OBS6  gwtModel.obs  obs_0
  OC6  gwtModel.oc  oc
  FMI6  gwtModel.fmi  fmi
END packages

