# File generated by Flopy version 3.9.3 on 09/05/2025 at 16:06:12.
BEGIN options
  FLOW_IMBALANCE_CORRECTION
END options

BEGIN packagedata
  GWFHEAD  FILEIN  ../modelFiles/mf6Model.hds
  GWFBUDGET  FILEIN  ../modelFiles/mf6Model.cbc
END packagedata

