# File generated by Flopy version 3.9.3 on 09/05/2025 at 16:06:12.
BEGIN options
END options

BEGIN dimensions
  MAXBOUND  1624
END dimensions

BEGIN period  1
  10 1302    1200.00000000
  10 1333    1200.00000000
  10 1338    1200.00000000
  10 1368    1200.00000000
  10 1379    1200.00000000
  10 1380    1200.00000000
  10 1407    1200.00000000
  10 1410    1200.00000000
  10 1411    1200.00000000
  10 1412    1200.00000000
  10 1413    1200.00000000
  10 1453    1200.00000000
  10 1465    1200.00000000
  10 1467    1200.00000000
  10 1495    1200.00000000
  10 1496    1200.00000000
  10 1497    1200.00000000
  10 1498    1200.00000000
  10 1499    1200.00000000
  10 1500    1200.00000000
  10 1502    1200.00000000
  10 1530    1200.00000000
  10 1539    1200.00000000
  10 1546    1200.00000000
  10 1547    1200.00000000
  10 1550    1200.00000000
  10 1552    1200.00000000
  10 1620    1200.00000000
  10 1621    1200.00000000
  5 1622    1200.00000000
  10 1623    1200.00000000
  10 1624    1200.00000000
  7 1625    1200.00000000
  6 1654    1200.00000000
  10 1670    1200.00000000
  10 1676    1200.00000000
  10 1681    1200.00000000
  10 1706    1200.00000000
  4 1710    1200.00000000
  10 1736    1200.00000000
  4 1737    1200.00000000
  3 1739    1200.00000000
  4 1740    1200.00000000
  10 1744    1200.00000000
  4 1750    1200.00000000
  10 1770    1200.00000000
  6 1787    1200.00000000
  8 1788    1200.00000000
  3 1789    1200.00000000
  3 1790    1200.00000000
  9 1791    1200.00000000
  6 1792    1200.00000000
  10 1814    1200.00000000
  10 1869    1200.00000000
  3 1879    1200.00000000
  8 1880    1200.00000000
  10 1882    1200.00000000
  10 1909    1200.00000000
  4 1910    1200.00000000
  3 1911    1200.00000000
  8 1921    1200.00000000
  10 1960    1200.00000000
  4 1961    1200.00000000
  10 1963    1200.00000000
  3 1964    1200.00000000
  10 1965    1200.00000000
  10 1966    1200.00000000
  10 1984    1200.00000000
  3 1986    1200.00000000
  4 1987    1200.00000000
  3 2023    1200.00000000
  10 2024    1200.00000000
  4 2036    1200.00000000
  10 2121    1200.00000000
  10 2128    1200.00000000
  3 2143    1200.00000000
  3 2144    1200.00000000
  10 2149    1200.00000000
  3 2154    1200.00000000
  10 2155    1200.00000000
  3 2198    1200.00000000
  10 2200    1200.00000000
  10 2201    1200.00000000
  10 2202    1200.00000000
  10 2204    1200.00000000
  7 2206    1200.00000000
  10 2208    1200.00000000
  3 2229    1200.00000000
  4 2230    1200.00000000
  3 2240    1200.00000000
  10 2287    1200.00000000
  10 2288    1200.00000000
  10 2291    1200.00000000
  10 2296    1200.00000000
  6 2322    1200.00000000
  4 2323    1200.00000000
  3 2325    1200.00000000
  3 2329    1200.00000000
  9 2340    1200.00000000
  4 2342    1200.00000000
  3 2379    1200.00000000
  10 2380    1200.00000000
  10 2384    1200.00000000
  3 2385    1200.00000000
  10 2386    1200.00000000
  3 2387    1200.00000000
  3 2388    1200.00000000
  3 2389    1200.00000000
  4 2390    1200.00000000
  6 2391    1200.00000000
  10 2416    1200.00000000
  4 2422    1200.00000000
  3 2428    1200.00000000
  3 2453    1200.00000000
  3 2464    1200.00000000
  10 2465    1200.00000000
  8 2466    1200.00000000
  4 2467    1200.00000000
  8 2468    1200.00000000
  3 2469    1200.00000000
  10 2470    1200.00000000
  10 2471    1200.00000000
  10 2510    1200.00000000
  3 2562    1200.00000000
  3 2574    1200.00000000
  3 2598    1200.00000000
  6 2600    1200.00000000
  8 2601    1200.00000000
  10 2602    1200.00000000
  10 2604    1200.00000000
  12 2617    1200.00000000
  11 2620    1200.00000000
  3 2642    1200.00000000
  6 2651    1200.00000000
  11 2654    1200.00000000
  4 2655    1200.00000000
  12 2658    1200.00000000
  10 2659    1200.00000000
  3 2661    1200.00000000
  10 2662    1200.00000000
  8 2663    1200.00000000
  11 2665    1200.00000000
  11 2668    1200.00000000
  11 2669    1200.00000000
  10 2671    1200.00000000
  11 2692    1200.00000000
  3 2693    1200.00000000
  11 2697    1200.00000000
  3 2702    1200.00000000
  10 2705    1200.00000000
  10 2707    1200.00000000
  11 2708    1200.00000000
  10 2709    1200.00000000
  9 2710    1200.00000000
  11 2726    1200.00000000
  4 2727    1200.00000000
  11 2730    1200.00000000
  11 2732    1200.00000000
  10 2737    1200.00000000
  10 2738    1200.00000000
  8 2742    1200.00000000
  4 2759    1200.00000000
  10 2793    1200.00000000
  10 2794    1200.00000000
  9 2795    1200.00000000
  10 2797    1200.00000000
  11 2799    1200.00000000
  8 2804    1200.00000000
  8 2806    1200.00000000
  8 2829    1200.00000000
  4 2831    1200.00000000
  3 2833    1200.00000000
  8 2834    1200.00000000
  8 2835    1200.00000000
  10 2837    1200.00000000
  10 2839    1200.00000000
  8 2842    1200.00000000
  5 2843    1200.00000000
  9 2844    1200.00000000
  4 2845    1200.00000000
  11 2846    1200.00000000
  3 2847    1200.00000000
  10 2848    1200.00000000
  7 2849    1200.00000000
  8 2850    1200.00000000
  8 2851    1200.00000000
  7 2852    1200.00000000
  8 2856    1200.00000000
  10 2873    1200.00000000
  10 2878    1200.00000000
  8 2880    1200.00000000
  10 2885    1200.00000000
  7 2887    1200.00000000
  11 2888    1200.00000000
  8 2892    1200.00000000
  8 2894    1200.00000000
  8 2896    1200.00000000
  7 2902    1200.00000000
  7 2913    1200.00000000
  4 2914    1200.00000000
  7 2916    1200.00000000
  10 2917    1200.00000000
  10 2920    1200.00000000
  7 2921    1200.00000000
  7 2922    1200.00000000
  7 2923    1200.00000000
  7 2924    1200.00000000
  7 2925    1200.00000000
  6 2926    1200.00000000
  7 2929    1200.00000000
  10 2932    1200.00000000
  11 2933    1200.00000000
  8 2934    1200.00000000
  8 2935    1200.00000000
  8 2942    1200.00000000
  10 2956    1200.00000000
  3 2984    1200.00000000
  4 2989    1200.00000000
  4 3028    1200.00000000
  10 3031    1200.00000000
  4 3034    1200.00000000
  8 3039    1200.00000000
  7 3040    1200.00000000
  7 3041    1200.00000000
  4 3044    1200.00000000
  7 3046    1200.00000000
  8 3047    1200.00000000
  8 3048    1200.00000000
  8 3049    1200.00000000
  8 3051    1200.00000000
  8 3053    1200.00000000
  10 3055    1200.00000000
  9 3056    1200.00000000
  6 3058    1200.00000000
  6 3059    1200.00000000
  7 3063    1200.00000000
  11 3068    1200.00000000
  6 3069    1200.00000000
  7 3070    1200.00000000
  3 3071    1200.00000000
  9 3073    1200.00000000
  8 3074    1200.00000000
  10 3075    1200.00000000
  3 3077    1200.00000000
  7 3078    1200.00000000
  8 3081    1200.00000000
  8 3083    1200.00000000
  8 3085    1200.00000000
  10 3098    1200.00000000
  6 3101    1200.00000000
  8 3104    1200.00000000
  3 3105    1200.00000000
  3 3106    1200.00000000
  8 3109    1200.00000000
  9 3112    1200.00000000
  8 3113    1200.00000000
  10 3114    1200.00000000
  3 3115    1200.00000000
  10 3116    1200.00000000
  4 3118    1200.00000000
  8 3119    1200.00000000
  4 3120    1200.00000000
  10 3121    1200.00000000
  4 3122    1200.00000000
  6 3123    1200.00000000
  3 3124    1200.00000000
  6 3125    1200.00000000
  10 3127    1200.00000000
  10 3128    1200.00000000
  8 3132    1200.00000000
  10 3135    1200.00000000
  8 3136    1200.00000000
  8 3147    1200.00000000
  3 3150    1200.00000000
  10 3151    1200.00000000
  3 3152    1200.00000000
  10 3154    1200.00000000
  4 3156    1200.00000000
  8 3157    1200.00000000
  8 3160    1200.00000000
  8 3161    1200.00000000
  4 3167    1200.00000000
  10 3168    1200.00000000
  4 3169    1200.00000000
  10 3171    1200.00000000
  8 3173    1200.00000000
  8 3174    1200.00000000
  8 3176    1200.00000000
  8 3177    1200.00000000
  10 3184    1200.00000000
  10 3188    1200.00000000
  4 3189    1200.00000000
  10 3192    1200.00000000
  10 3217    1200.00000000
  10 3221    1200.00000000
  8 3226    1200.00000000
  10 3253    1200.00000000
  4 3254    1200.00000000
  3 3255    1200.00000000
  3 3257    1200.00000000
  10 3259    1200.00000000
  8 3260    1200.00000000
  10 3261    1200.00000000
  8 3262    1200.00000000
  8 3263    1200.00000000
  7 3264    1200.00000000
  9 3265    1200.00000000
  2 3266    1200.00000000
  4 3267    1200.00000000
  4 3269    1200.00000000
  8 3270    1200.00000000
  8 3271    1200.00000000
  9 3273    1200.00000000
  8 3274    1200.00000000
  8 3275    1200.00000000
  3 3276    1200.00000000
  10 3277    1200.00000000
  8 3281    1200.00000000
  8 3283    1200.00000000
  10 3293    1200.00000000
  3 3295    1200.00000000
  10 3297    1200.00000000
  3 3299    1200.00000000
  8 3302    1200.00000000
  8 3304    1200.00000000
  10 3305    1200.00000000
  3 3306    1200.00000000
  3 3307    1200.00000000
  10 3308    1200.00000000
  8 3309    1200.00000000
  3 3310    1200.00000000
  8 3311    1200.00000000
  3 3312    1200.00000000
  3 3313    1200.00000000
  3 3314    1200.00000000
  4 3315    1200.00000000
  3 3316    1200.00000000
  3 3317    1200.00000000
  3 3318    1200.00000000
  3 3319    1200.00000000
  7 3320    1200.00000000
  2 3321    1200.00000000
  7 3322    1200.00000000
  4 3323    1200.00000000
  4 3324    1200.00000000
  8 3325    1200.00000000
  8 3327    1200.00000000
  9 3329    1200.00000000
  9 3330    1200.00000000
  8 3344    1200.00000000
  10 3347    1200.00000000
  3 3348    1200.00000000
  7 3350    1200.00000000
  9 3352    1200.00000000
  3 3353    1200.00000000
  8 3356    1200.00000000
  10 3358    1200.00000000
  8 3361    1200.00000000
  4 3362    1200.00000000
  2 3365    1200.00000000
  9 3367    1200.00000000
  8 3369    1200.00000000
  8 3370    1200.00000000
  8 3371    1200.00000000
  9 3373    1200.00000000
  3 3376    1200.00000000
  2 3377    1200.00000000
  10 3380    1200.00000000
  2 3381    1200.00000000
  2 3382    1200.00000000
  10 3383    1200.00000000
  3 3384    1200.00000000
  4 3385    1200.00000000
  10 3386    1200.00000000
  6 3387    1200.00000000
  3 3388    1200.00000000
  2 3389    1200.00000000
  2 3390    1200.00000000
  2 3391    1200.00000000
  2 3392    1200.00000000
  4 3393    1200.00000000
  3 3394    1200.00000000
  3 3395    1200.00000000
  4 3396    1200.00000000
  8 3397    1200.00000000
  4 3398    1200.00000000
  8 3400    1200.00000000
  2 3407    1200.00000000
  8 3408    1200.00000000
  9 3410    1200.00000000
  9 3412    1200.00000000
  4 3419    1200.00000000
  3 3420    1200.00000000
  2 3421    1200.00000000
  3 3424    1200.00000000
  10 3428    1200.00000000
  10 3434    1200.00000000
  10 3459    1200.00000000
  9 3491    1200.00000000
  9 3492    1200.00000000
  8 3495    1200.00000000
  10 3496    1200.00000000
  2 3497    1200.00000000
  4 3500    1200.00000000
  9 3502    1200.00000000
  4 3503    1200.00000000
  4 3504    1200.00000000
  3 3505    1200.00000000
  2 3506    1200.00000000
  9 3507    1200.00000000
  2 3508    1200.00000000
  9 3509    1200.00000000
  2 3510    1200.00000000
  2 3511    1200.00000000
  2 3512    1200.00000000
  4 3513    1200.00000000
  2 3514    1200.00000000
  7 3515    1200.00000000
  7 3516    1200.00000000
  3 3517    1200.00000000
  3 3518    1200.00000000
  2 3519    1200.00000000
  4 3520    1200.00000000
  2 3521    1200.00000000
  3 3522    1200.00000000
  2 3523    1200.00000000
  9 3524    1200.00000000
  9 3525    1200.00000000
  8 3527    1200.00000000
  8 3528    1200.00000000
  2 3530    1200.00000000
  6 3536    1200.00000000
  3 3538    1200.00000000
  4 3539    1200.00000000
  2 3543    1200.00000000
  2 3544    1200.00000000
  2 3545    1200.00000000
  3 3548    1200.00000000
  9 3549    1200.00000000
  9 3552    1200.00000000
  9 3553    1200.00000000
  9 3556    1200.00000000
  3 3558    1200.00000000
  2 3559    1200.00000000
  2 3560    1200.00000000
  2 3561    1200.00000000
  2 3562    1200.00000000
  2 3563    1200.00000000
  2 3564    1200.00000000
  2 3565    1200.00000000
  2 3566    1200.00000000
  2 3567    1200.00000000
  3 3568    1200.00000000
  3 3569    1200.00000000
  2 3570    1200.00000000
  8 3571    1200.00000000
  5 3572    1200.00000000
  9 3573    1200.00000000
  2 3574    1200.00000000
  3 3576    1200.00000000
  3 3578    1200.00000000
  10 3579    1200.00000000
  2 3580    1200.00000000
  2 3582    1200.00000000
  9 3584    1200.00000000
  8 3588    1200.00000000
  10 3589    1200.00000000
  2 3590    1200.00000000
  10 3591    1200.00000000
  4 3593    1200.00000000
  2 3594    1200.00000000
  2 3595    1200.00000000
  2 3596    1200.00000000
  2 3597    1200.00000000
  2 3598    1200.00000000
  2 3599    1200.00000000
  2 3600    1200.00000000
  2 3601    1200.00000000
  2 3602    1200.00000000
  2 3603    1200.00000000
  4 3604    1200.00000000
  7 3605    1200.00000000
  7 3606    1200.00000000
  9 3607    1200.00000000
  4 3608    1200.00000000
  2 3611    1200.00000000
  10 3612    1200.00000000
  10 3614    1200.00000000
  10 3615    1200.00000000
  2 3619    1200.00000000
  3 3620    1200.00000000
  9 3621    1200.00000000
  2 3625    1200.00000000
  2 3627    1200.00000000
  2 3628    1200.00000000
  8 3629    1200.00000000
  10 3630    1200.00000000
  2 3634    1200.00000000
  9 3635    1200.00000000
  10 3636    1200.00000000
  10 3637    1200.00000000
  10 3638    1200.00000000
  2 3678    1200.00000000
  10 3679    1200.00000000
  4 3680    1200.00000000
  5 3681    1200.00000000
  3 3683    1200.00000000
  2 3685    1200.00000000
  3 3713    1200.00000000
  3 3714    1200.00000000
  10 3715    1200.00000000
  10 3717    1200.00000000
  10 3719    1200.00000000
  3 3720    1200.00000000
  2 3721    1200.00000000
  2 3722    1200.00000000
  2 3723    1200.00000000
  3 3724    1200.00000000
  3 3725    1200.00000000
  3 3726    1200.00000000
  2 3727    1200.00000000
  10 3728    1200.00000000
  10 3729    1200.00000000
  7 3730    1200.00000000
  4 3731    1200.00000000
  9 3732    1200.00000000
  9 3733    1200.00000000
  9 3734    1200.00000000
  8 3735    1200.00000000
  6 3736    1200.00000000
  7 3737    1200.00000000
  3 3740    1200.00000000
  2 3741    1200.00000000
  2 3742    1200.00000000
  9 3745    1200.00000000
  2 3747    1200.00000000
  3 3749    1200.00000000
  2 3750    1200.00000000
  10 3752    1200.00000000
  10 3753    1200.00000000
  2 3759    1200.00000000
  2 3760    1200.00000000
  10 3761    1200.00000000
  2 3762    1200.00000000
  10 3763    1200.00000000
  10 3764    1200.00000000
  2 3765    1200.00000000
  10 3766    1200.00000000
  3 3767    1200.00000000
  10 3768    1200.00000000
  5 3770    1200.00000000
  2 3771    1200.00000000
  10 3772    1200.00000000
  10 3773    1200.00000000
  10 3774    1200.00000000
  2 3775    1200.00000000
  7 3776    1200.00000000
  2 3777    1200.00000000
  3 3778    1200.00000000
  2 3779    1200.00000000
  4 3780    1200.00000000
  7 3781    1200.00000000
  7 3782    1200.00000000
  2 3783    1200.00000000
  4 3784    1200.00000000
  3 3785    1200.00000000
  2 3786    1200.00000000
  10 3787    1200.00000000
  10 3788    1200.00000000
  10 3789    1200.00000000
  10 3790    1200.00000000
  10 3791    1200.00000000
  7 3792    1200.00000000
  10 3793    1200.00000000
  10 3794    1200.00000000
  10 3795    1200.00000000
  10 3796    1200.00000000
  9 3797    1200.00000000
  10 3798    1200.00000000
  10 3800    1200.00000000
  2 3805    1200.00000000
  4 3806    1200.00000000
  3 3808    1200.00000000
  2 3811    1200.00000000
  4 3812    1200.00000000
  10 3813    1200.00000000
  2 3814    1200.00000000
  3 3815    1200.00000000
  10 3817    1200.00000000
  10 3821    1200.00000000
  2 3822    1200.00000000
  10 3823    1200.00000000
  10 3828    1200.00000000
  10 3830    1200.00000000
  3 3831    1200.00000000
  6 3832    1200.00000000
  2 3833    1200.00000000
  10 3834    1200.00000000
  10 3835    1200.00000000
  2 3836    1200.00000000
  10 3837    1200.00000000
  3 3838    1200.00000000
  4 3839    1200.00000000
  10 3840    1200.00000000
  6 3841    1200.00000000
  6 3842    1200.00000000
  2 3843    1200.00000000
  2 3844    1200.00000000
  3 3845    1200.00000000
  2 3846    1200.00000000
  4 3847    1200.00000000
  8 3848    1200.00000000
  8 3849    1200.00000000
  3 3850    1200.00000000
  6 3851    1200.00000000
  3 3852    1200.00000000
  3 3853    1200.00000000
  10 3854    1200.00000000
  10 3855    1200.00000000
  10 3856    1200.00000000
  10 3857    1200.00000000
  10 3858    1200.00000000
  10 3859    1200.00000000
  10 3860    1200.00000000
  10 3861    1200.00000000
  10 3862    1200.00000000
  2 3864    1200.00000000
  10 3867    1200.00000000
  3 3870    1200.00000000
  10 3887    1200.00000000
  2 3904    1200.00000000
  2 3905    1200.00000000
  10 3911    1200.00000000
  10 3919    1200.00000000
  11 3920    1200.00000000
  10 3924    1200.00000000
  10 3928    1200.00000000
  10 3934    1200.00000000
  2 3938    1200.00000000
  10 3939    1200.00000000
  3 3940    1200.00000000
  10 3941    1200.00000000
  10 3945    1200.00000000
  3 3947    1200.00000000
  10 3948    1200.00000000
  2 3949    1200.00000000
  2 3950    1200.00000000
  3 3951    1200.00000000
  6 3952    1200.00000000
  2 3953    1200.00000000
  3 3954    1200.00000000
  3 3955    1200.00000000
  2 3956    1200.00000000
  10 3957    1200.00000000
  4 3958    1200.00000000
  2 3959    1200.00000000
  7 3960    1200.00000000
  8 3961    1200.00000000
  7 3962    1200.00000000
  10 3963    1200.00000000
  10 3964    1200.00000000
  11 3965    1200.00000000
  3 3966    1200.00000000
  10 3967    1200.00000000
  10 3968    1200.00000000
  10 3969    1200.00000000
  11 3970    1200.00000000
  10 3971    1200.00000000
  10 3972    1200.00000000
  10 3973    1200.00000000
  11 3974    1200.00000000
  10 3979    1200.00000000
  8 3981    1200.00000000
  6 3982    1200.00000000
  9 3983    1200.00000000
  4 3986    1200.00000000
  11 3987    1200.00000000
  11 3988    1200.00000000
  2 3989    1200.00000000
  10 3990    1200.00000000
  3 3991    1200.00000000
  5 3993    1200.00000000
  11 3994    1200.00000000
  3 3995    1200.00000000
  11 3998    1200.00000000
  2 3999    1200.00000000
  6 4000    1200.00000000
  5 4001    1200.00000000
  3 4002    1200.00000000
  9 4004    1200.00000000
  2 4005    1200.00000000
  4 4006    1200.00000000
  9 4008    1200.00000000
  2 4009    1200.00000000
  10 4010    1200.00000000
  2 4011    1200.00000000
  2 4012    1200.00000000
  2 4013    1200.00000000
  2 4014    1200.00000000
  4 4015    1200.00000000
  2 4016    1200.00000000
  3 4017    1200.00000000
  3 4018    1200.00000000
  2 4019    1200.00000000
  2 4020    1200.00000000
  2 4021    1200.00000000
  3 4022    1200.00000000
  2 4023    1200.00000000
  3 4024    1200.00000000
  4 4025    1200.00000000
  5 4026    1200.00000000
  4 4027    1200.00000000
  10 4028    1200.00000000
  3 4029    1200.00000000
  4 4030    1200.00000000
  10 4031    1200.00000000
  10 4032    1200.00000000
  10 4033    1200.00000000
  11 4034    1200.00000000
  11 4035    1200.00000000
  10 4036    1200.00000000
  10 4037    1200.00000000
  10 4038    1200.00000000
  10 4039    1200.00000000
  11 4040    1200.00000000
  11 4041    1200.00000000
  11 4042    1200.00000000
  3 4043    1200.00000000
  11 4044    1200.00000000
  2 4046    1200.00000000
  2 4049    1200.00000000
  10 4051    1200.00000000
  3 4052    1200.00000000
  2 4053    1200.00000000
  4 4056    1200.00000000
  3 4057    1200.00000000
  2 4061    1200.00000000
  10 4065    1200.00000000
  5 4066    1200.00000000
  2 4067    1200.00000000
  2 4069    1200.00000000
  4 4075    1200.00000000
  10 4076    1200.00000000
  7 4083    1200.00000000
  7 4084    1200.00000000
  10 4099    1200.00000000
  11 4106    1200.00000000
  2 4128    1200.00000000
  10 4129    1200.00000000
  2 4130    1200.00000000
  2 4131    1200.00000000
  2 4132    1200.00000000
  2 4133    1200.00000000
  2 4134    1200.00000000
  2 4135    1200.00000000
  2 4136    1200.00000000
  2 4137    1200.00000000
  2 4138    1200.00000000
  3 4139    1200.00000000
  2 4140    1200.00000000
  2 4141    1200.00000000
  2 4142    1200.00000000
  3 4143    1200.00000000
  2 4144    1200.00000000
  2 4145    1200.00000000
  7 4146    1200.00000000
  2 4147    1200.00000000
  3 4148    1200.00000000
  2 4149    1200.00000000
  3 4150    1200.00000000
  3 4151    1200.00000000
  10 4152    1200.00000000
  4 4153    1200.00000000
  10 4154    1200.00000000
  4 4155    1200.00000000
  10 4156    1200.00000000
  3 4157    1200.00000000
  10 4158    1200.00000000
  10 4159    1200.00000000
  10 4160    1200.00000000
  10 4161    1200.00000000
  10 4162    1200.00000000
  10 4163    1200.00000000
  11 4164    1200.00000000
  11 4165    1200.00000000
  10 4167    1200.00000000
  3 4168    1200.00000000
  2 4169    1200.00000000
  2 4172    1200.00000000
  3 4173    1200.00000000
  6 4175    1200.00000000
  2 4178    1200.00000000
  10 4179    1200.00000000
  4 4180    1200.00000000
  2 4181    1200.00000000
  10 4185    1200.00000000
  10 4186    1200.00000000
  2 4188    1200.00000000
  2 4189    1200.00000000
  10 4190    1200.00000000
  1 4191    1200.00000000
  10 4192    1200.00000000
  2 4193    1200.00000000
  4 4194    1200.00000000
  2 4195    1200.00000000
  1 4196    1200.00000000
  1 4197    1200.00000000
  1 4198    1200.00000000
  1 4199    1200.00000000
  2 4200    1200.00000000
  2 4201    1200.00000000
  2 4202    1200.00000000
  2 4203    1200.00000000
  3 4204    1200.00000000
  2 4205    1200.00000000
  8 4206    1200.00000000
  2 4207    1200.00000000
  2 4208    1200.00000000
  2 4209    1200.00000000
  3 4210    1200.00000000
  3 4211    1200.00000000
  10 4212    1200.00000000
  10 4213    1200.00000000
  10 4214    1200.00000000
  4 4215    1200.00000000
  10 4216    1200.00000000
  8 4217    1200.00000000
  10 4218    1200.00000000
  10 4219    1200.00000000
  10 4220    1200.00000000
  6 4221    1200.00000000
  6 4222    1200.00000000
  10 4223    1200.00000000
  10 4224    1200.00000000
  10 4225    1200.00000000
  11 4226    1200.00000000
  11 4228    1200.00000000
  2 4230    1200.00000000
  10 4231    1200.00000000
  8 4234    1200.00000000
  8 4236    1200.00000000
  4 4237    1200.00000000
  2 4238    1200.00000000
  3 4239    1200.00000000
  9 4240    1200.00000000
  2 4241    1200.00000000
  11 4242    1200.00000000
  8 4245    1200.00000000
  2 4248    1200.00000000
  10 4250    1200.00000000
  1 4251    1200.00000000
  4 4252    1200.00000000
  2 4253    1200.00000000
  4 4254    1200.00000000
  4 4255    1200.00000000
  10 4256    1200.00000000
  4 4257    1200.00000000
  3 4258    1200.00000000
  4 4259    1200.00000000
  7 4261    1200.00000000
  4 4262    1200.00000000
  6 4264    1200.00000000
  2 4265    1200.00000000
  3 4266    1200.00000000
  4 4268    1200.00000000
  2 4269    1200.00000000
  1 4270    1200.00000000
  1 4271    1200.00000000
  1 4272    1200.00000000
  2 4273    1200.00000000
  2 4274    1200.00000000
  1 4275    1200.00000000
  2 4276    1200.00000000
  2 4277    1200.00000000
  3 4278    1200.00000000
  2 4279    1200.00000000
  2 4280    1200.00000000
  3 4281    1200.00000000
  9 4282    1200.00000000
  4 4284    1200.00000000
  10 4285    1200.00000000
  4 4286    1200.00000000
  10 4287    1200.00000000
  10 4288    1200.00000000
  10 4289    1200.00000000
  10 4290    1200.00000000
  4 4291    1200.00000000
  8 4292    1200.00000000
  10 4293    1200.00000000
  10 4294    1200.00000000
  7 4322    1200.00000000
  3 4326    1200.00000000
  2 4327    1200.00000000
  10 4339    1200.00000000
  10 4340    1200.00000000
  5 4343    1200.00000000
  10 4345    1200.00000000
  10 4349    1200.00000000
  1 4354    1200.00000000
  4 4355    1200.00000000
  10 4356    1200.00000000
  2 4359    1200.00000000
  2 4360    1200.00000000
  3 4366    1200.00000000
  3 4367    1200.00000000
  2 4368    1200.00000000
  2 4369    1200.00000000
  2 4370    1200.00000000
  2 4371    1200.00000000
  2 4372    1200.00000000
  1 4373    1200.00000000
  1 4374    1200.00000000
  1 4375    1200.00000000
  1 4376    1200.00000000
  1 4377    1200.00000000
  1 4378    1200.00000000
  1 4379    1200.00000000
  2 4380    1200.00000000
  2 4381    1200.00000000
  2 4382    1200.00000000
  2 4383    1200.00000000
  2 4384    1200.00000000
  2 4385    1200.00000000
  2 4386    1200.00000000
  3 4387    1200.00000000
  3 4388    1200.00000000
  3 4389    1200.00000000
  10 4391    1200.00000000
  7 4392    1200.00000000
  3 4393    1200.00000000
  8 4394    1200.00000000
  10 4395    1200.00000000
  10 4400    1200.00000000
  10 4402    1200.00000000
  10 4404    1200.00000000
  7 4405    1200.00000000
  10 4407    1200.00000000
  1 4408    1200.00000000
  9 4409    1200.00000000
  2 4410    1200.00000000
  2 4411    1200.00000000
  10 4412    1200.00000000
  10 4415    1200.00000000
  2 4416    1200.00000000
  7 4417    1200.00000000
  10 4419    1200.00000000
  7 4420    1200.00000000
  2 4422    1200.00000000
  1 4424    1200.00000000
  2 4425    1200.00000000
  3 4426    1200.00000000
  2 4427    1200.00000000
  2 4428    1200.00000000
  2 4429    1200.00000000
  2 4430    1200.00000000
  1 4431    1200.00000000
  1 4432    1200.00000000
  1 4433    1200.00000000
  1 4434    1200.00000000
  1 4435    1200.00000000
  1 4436    1200.00000000
  2 4437    1200.00000000
  1 4438    1200.00000000
  2 4439    1200.00000000
  2 4440    1200.00000000
  2 4441    1200.00000000
  2 4442    1200.00000000
  2 4443    1200.00000000
  2 4444    1200.00000000
  3 4445    1200.00000000
  4 4446    1200.00000000
  4 4448    1200.00000000
  10 4451    1200.00000000
  10 4452    1200.00000000
  9 4454    1200.00000000
  10 4457    1200.00000000
  1 4458    1200.00000000
  2 4459    1200.00000000
  10 4462    1200.00000000
  2 4463    1200.00000000
  10 4464    1200.00000000
  1 4468    1200.00000000
  3 4469    1200.00000000
  6 4487    1200.00000000
  10 4506    1200.00000000
  10 4509    1200.00000000
  10 4512    1200.00000000
  7 4513    1200.00000000
  9 4520    1200.00000000
  2 4529    1200.00000000
  1 4530    1200.00000000
  2 4531    1200.00000000
  1 4532    1200.00000000
  1 4533    1200.00000000
  1 4534    1200.00000000
  1 4535    1200.00000000
  2 4536    1200.00000000
  1 4537    1200.00000000
  1 4538    1200.00000000
  1 4539    1200.00000000
  2 4540    1200.00000000
  1 4541    1200.00000000
  1 4542    1200.00000000
  2 4543    1200.00000000
  1 4544    1200.00000000
  2 4545    1200.00000000
  3 4546    1200.00000000
  3 4547    1200.00000000
  2 4548    1200.00000000
  2 4549    1200.00000000
  4 4550    1200.00000000
  10 4551    1200.00000000
  10 4553    1200.00000000
  10 4554    1200.00000000
  10 4557    1200.00000000
  10 4558    1200.00000000
  10 4559    1200.00000000
  10 4560    1200.00000000
  10 4561    1200.00000000
  10 4562    1200.00000000
  3 4563    1200.00000000
  4 4564    1200.00000000
  1 4565    1200.00000000
  1 4566    1200.00000000
  2 4572    1200.00000000
  2 4574    1200.00000000
  9 4576    1200.00000000
  1 4577    1200.00000000
  2 4578    1200.00000000
  1 4579    1200.00000000
  1 4580    1200.00000000
  1 4581    1200.00000000
  1 4582    1200.00000000
  5 4583    1200.00000000
  6 4584    1200.00000000
  1 4585    1200.00000000
  1 4586    1200.00000000
  1 4587    1200.00000000
  1 4588    1200.00000000
  1 4589    1200.00000000
  1 4590    1200.00000000
  1 4591    1200.00000000
  2 4592    1200.00000000
  1 4593    1200.00000000
  2 4594    1200.00000000
  2 4595    1200.00000000
  3 4596    1200.00000000
  2 4597    1200.00000000
  3 4598    1200.00000000
  10 4599    1200.00000000
  10 4601    1200.00000000
  10 4602    1200.00000000
  10 4603    1200.00000000
  10 4605    1200.00000000
  10 4606    1200.00000000
  1 4608    1200.00000000
  3 4609    1200.00000000
  1 4611    1200.00000000
  10 4613    1200.00000000
  10 4614    1200.00000000
  4 4615    1200.00000000
  10 4616    1200.00000000
  1 4619    1200.00000000
  9 4620    1200.00000000
  4 4621    1200.00000000
  10 4622    1200.00000000
  3 4625    1200.00000000
  10 4626    1200.00000000
  4 4627    1200.00000000
  1 4628    1200.00000000
  3 4629    1200.00000000
  8 4630    1200.00000000
  1 4631    1200.00000000
  2 4632    1200.00000000
  1 4633    1200.00000000
  1 4634    1200.00000000
  1 4635    1200.00000000
  2 4636    1200.00000000
  1 4637    1200.00000000
  1 4638    1200.00000000
  1 4639    1200.00000000
  1 4640    1200.00000000
  1 4641    1200.00000000
  3 4642    1200.00000000
  1 4643    1200.00000000
  9 4644    1200.00000000
  10 4645    1200.00000000
  3 4646    1200.00000000
  9 4647    1200.00000000
  10 4648    1200.00000000
  4 4649    1200.00000000
  4 4650    1200.00000000
  10 4651    1200.00000000
  7 4652    1200.00000000
  10 4653    1200.00000000
  10 4657    1200.00000000
  10 4658    1200.00000000
  10 4660    1200.00000000
  2 4661    1200.00000000
  10 4663    1200.00000000
  10 4664    1200.00000000
  1 4666    1200.00000000
  1 4669    1200.00000000
  1 4670    1200.00000000
  9 4695    1200.00000000
  10 4698    1200.00000000
  8 4724    1200.00000000
  2 4727    1200.00000000
  10 4728    1200.00000000
  6 4730    1200.00000000
  9 4733    1200.00000000
  1 4734    1200.00000000
  4 4736    1200.00000000
  8 4737    1200.00000000
  1 4738    1200.00000000
  2 4739    1200.00000000
  1 4740    1200.00000000
  1 4741    1200.00000000
  1 4742    1200.00000000
  1 4743    1200.00000000
  2 4744    1200.00000000
  2 4745    1200.00000000
  10 4747    1200.00000000
  10 4748    1200.00000000
  10 4750    1200.00000000
  10 4751    1200.00000000
  10 4752    1200.00000000
  10 4753    1200.00000000
  2 4759    1200.00000000
  10 4760    1200.00000000
  10 4761    1200.00000000
  2 4764    1200.00000000
  1 4766    1200.00000000
  1 4767    1200.00000000