# File generated by Flopy version 3.9.3 on 09/05/2025 at 16:06:12.
BEGIN options
END options

BEGIN griddata
  alh
    CONSTANT       1.00000000
  ath1
    CONSTANT       0.10000000
END griddata

