# File generated by Flopy version 3.9.3 on 09/05/2025 at 16:06:12.
BEGIN options
END options

BEGIN griddata
  porosity
    CONSTANT       0.05000000
END griddata

