# File generated by Flopy version 3.9.3 on 09/05/2025 at 16:06:12.
BEGIN options
  DIGITS  10
  PRINT_INPUT
END options

BEGIN continuous  FILEOUT  gwtModel.obs.csv
  Obs3  concentration  10  1360
  Obs2  concentration  10  1974
  Obs1  concentration  10  2442
END continuous  FILEOUT  gwtModel.obs.csv

