# File generated by Flopy version 3.9.3 on 09/05/2025 at 16:06:12.
BEGIN options
  BUDGET  FILEOUT  gwtModel.cbc
  CONCENTRATION  FILEOUT  gwtModel.ucn
END options

BEGIN period  1
  SAVE  CONCENTRATION  LAST
  SAVE  BUDGET  LAST
  PRINT  CONCENTRATION  LAST
  PRINT  BUDGET  LAST
END period  1

