# File generated by Flopy version 3.9.3 on 09/05/2025 at 16:06:11.
BEGIN options
  BUDGET  FILEOUT  mf6Model.cbc
  HEAD  FILEOUT  mf6Model.hds
END options

BEGIN period  1
  SAVE  head  all
  SAVE  budget  all
END period  1

