# File generated by Flopy version 3.9.3 on 09/05/2025 at 16:06:09.
BEGIN options
  PRINT_OPTION  summary
END options

BEGIN nonlinear
  OUTER_DVCLOSE  1.00000000E-04
END nonlinear

BEGIN linear
  INNER_DVCLOSE  1.00000000E-04
  LINEAR_ACCELERATION  bicgstab
END linear

