# File generated by Flopy version 3.9.3 on 09/05/2025 at 16:06:09.
BEGIN options
END options

BEGIN dimensions
  NLAY  19
  NCPL  7362
  NVERT  10857
END dimensions

BEGIN griddata
  top
    INTERNAL  FACTOR  1.0
       574.00000000     584.00000000     570.00000000     569.00000000     566.00000000     585.00000000     571.00000000     597.00000000     563.00000000     560.00000000     587.00000000     594.00000000     652.00000000     579.00000000     589.00000000     570.00000000     588.00000000     566.00000000     564.00000000     592.00000000
       615.00000000     565.00000000     596.00000000     562.00000000     585.00000000     570.00000000     629.00000000     589.00000000     569.00000000     608.00000000     634.00000000     630.00000000     599.00000000     642.00000000     586.00000000     608.00000000     581.00000000     634.00000000     593.00000000     563.00000000
       662.00000000     813.00000000     595.00000000     659.00000000     601.00000000     646.00000000     586.00000000     660.00000000     579.00000000     610.00000000     571.00000000     630.00000000     576.00000000     543.00000000     659.00000000     707.00000000     600.00000000     703.00000000     605.00000000     700.00000000
       595.00000000     685.00000000     595.00000000     676.00000000     564.00000000     619.00000000     559.00000000     609.00000000     554.00000000     714.00000000     790.00000000     776.00000000     610.00000000     760.00000000     593.00000000     745.00000000     590.00000000     719.00000000     574.00000000     683.00000000
       579.00000000     647.00000000     581.00000000     585.00000000     654.00000000     569.00000000     563.00000000     854.00000000     589.00000000     857.00000000     582.00000000     833.00000000     593.00000000     798.00000000     600.00000000     781.00000000     606.00000000     737.00000000     620.00000000     686.00000000
       624.00000000     608.00000000     621.00000000     669.00000000     576.00000000     573.00000000     853.00000000     880.00000000     974.00000000     592.00000000     886.00000000     607.00000000     895.00000000     628.00000000     884.00000000     632.00000000     857.00000000     634.00000000     829.00000000     644.00000000
       759.00000000     648.00000000     699.00000000     653.00000000     641.00000000     586.00000000     690.00000000     571.00000000     557.00000000     885.00000000     915.00000000     638.00000000     916.00000000     642.00000000     954.00000000     648.00000000     952.00000000     642.00000000     922.00000000     644.00000000
       885.00000000     613.00000000     852.00000000     608.00000000     788.00000000     620.00000000     724.00000000     612.00000000     641.00000000     592.00000000     696.00000000     570.00000000     910.00000000     949.00000000     944.00000000     645.00000000     955.00000000     644.00000000     954.00000000     635.00000000
       943.00000000     631.00000000     928.00000000     623.00000000     917.00000000     606.00000000     881.00000000     598.00000000     862.00000000     593.00000000     798.00000000     583.00000000     734.00000000     581.00000000     565.00000000     717.00000000     526.00000000     540.00000000    1013.00000000    1008.00000000
       648.00000000    1001.00000000     644.00000000    1019.00000000     643.00000000    1015.00000000     627.00000000     973.00000000     619.00000000     931.00000000     612.00000000     908.00000000     606.00000000     887.00000000     595.00000000     867.00000000     585.00000000     832.00000000     572.00000000     766.00000000
       566.00000000     688.00000000     547.00000000     701.00000000     531.00000000     541.00000000     980.00000000    1025.00000000     637.00000000    1044.00000000     641.00000000    1049.00000000     649.00000000    1026.00000000     603.00000000     990.00000000     592.00000000     959.00000000     604.00000000     913.00000000
       598.00000000     871.00000000     593.00000000     834.00000000     555.00000000     805.00000000     550.00000000     787.00000000     544.00000000     743.00000000     538.00000000     673.00000000     534.00000000     573.00000000     587.00000000     539.00000000     561.00000000     871.00000000    1031.00000000    1021.00000000
       638.00000000     997.00000000     620.00000000     996.00000000     617.00000000    1023.00000000     601.00000000    1044.00000000     589.00000000    1022.00000000     588.00000000     959.00000000     577.00000000     906.00000000     581.00000000     821.00000000     780.00000000     579.00000000     745.00000000     692.00000000
       568.00000000     662.00000000     627.00000000     599.00000000     584.00000000     575.00000000     571.00000000     561.00000000     555.00000000     580.00000000     579.00000000     564.00000000     589.00000000     581.00000000     567.00000000     548.00000000     538.00000000     904.00000000     531.00000000     521.00000000
       989.00000000    1001.00000000     748.00000000     957.00000000     855.00000000     820.00000000     662.00000000     723.00000000     520.00000000     518.00000000     704.00000000     630.00000000     603.00000000     620.00000000     595.00000000     553.00000000     524.00000000     566.00000000     589.00000000     576.00000000
       566.00000000     564.00000000     568.00000000     595.00000000     582.00000000     576.00000000     525.00000000     518.00000000     580.00000000     550.00000000     546.00000000     535.00000000     548.00000000     559.00000000     560.00000000     533.00000000     519.00000000     998.00000000     971.00000000     522.00000000
       518.00000000     947.00000000     517.00000000     518.00000000     958.00000000     550.00000000     519.00000000     522.00000000     518.00000000     985.00000000     529.00000000     950.00000000     974.00000000     995.00000000     933.00000000     934.00000000     527.00000000     524.00000000     761.00000000     809.00000000
       768.00000000     692.00000000     663.00000000     649.00000000     617.00000000     523.00000000     596.00000000     597.00000000     570.00000000     524.00000000     527.00000000     561.00000000     578.00000000     569.00000000     594.00000000     597.00000000     520.00000000     550.00000000     520.00000000     553.00000000
       533.00000000     531.00000000     521.00000000     542.00000000     534.00000000     523.00000000     520.00000000     518.00000000     557.00000000     542.00000000     526.00000000     912.00000000     538.00000000     536.00000000     968.00000000     532.00000000     968.00000000     537.00000000     534.00000000     931.00000000
       936.00000000     529.00000000     535.00000000     940.00000000     529.00000000     525.00000000     526.00000000     532.00000000     949.00000000     531.00000000     525.00000000     532.00000000     538.00000000     530.00000000     533.00000000     525.00000000     529.00000000     901.00000000     928.00000000     928.00000000
       854.00000000     880.00000000     834.00000000     731.00000000     766.00000000     699.00000000     630.00000000     673.00000000     596.00000000     579.00000000     523.00000000     531.00000000     565.00000000     559.00000000     560.00000000     568.00000000     553.00000000     579.00000000     534.00000000     523.00000000
       531.00000000     534.00000000     534.00000000     530.00000000     550.00000000     522.00000000     563.00000000     529.00000000     528.00000000     534.00000000     537.00000000     545.00000000     549.00000000     526.00000000     550.00000000     543.00000000     535.00000000     533.00000000     530.00000000     623.00000000
       525.00000000     531.00000000     532.00000000     875.00000000     539.00000000     535.00000000     529.00000000     528.00000000     529.00000000     525.00000000     920.00000000     528.00000000     538.00000000     917.00000000     528.00000000     539.00000000     534.00000000     534.00000000     531.00000000     528.00000000
       526.00000000     526.00000000     526.00000000     529.00000000     527.00000000     536.00000000     532.00000000     870.00000000     546.00000000     876.00000000     885.00000000     535.00000000     527.00000000     536.00000000     523.00000000     525.00000000     540.00000000     545.00000000     535.00000000     528.00000000
       530.00000000     543.00000000     535.00000000     889.00000000     531.00000000     528.00000000     551.00000000     533.00000000     536.00000000     537.00000000     893.00000000     922.00000000     887.00000000     886.00000000     865.00000000     847.00000000     787.00000000     789.00000000     531.00000000     531.00000000
       734.00000000     754.00000000     675.00000000     531.00000000     531.00000000     656.00000000     643.00000000     627.00000000     580.00000000     565.00000000     598.00000000     637.00000000     577.00000000     592.00000000     536.00000000     533.00000000     575.00000000     530.00000000     530.00000000     531.00000000
       533.00000000     540.00000000     531.00000000     528.00000000     527.00000000     538.00000000     538.00000000     543.00000000     537.00000000     541.00000000     532.00000000     550.00000000     536.00000000     539.00000000     546.00000000     599.00000000     531.00000000     555.00000000     536.00000000     529.00000000
       529.00000000     874.00000000     529.00000000     532.00000000     869.00000000     532.00000000     528.00000000     531.00000000     540.00000000     540.00000000     530.00000000     830.00000000     530.00000000     532.00000000     843.00000000     536.00000000     529.00000000     529.00000000     853.00000000     531.00000000
       877.00000000     535.00000000     533.00000000     917.00000000     533.00000000     945.00000000     836.00000000    1042.00000000     540.00000000     539.00000000     869.00000000     866.00000000     851.00000000     539.00000000     539.00000000     826.00000000     838.00000000     836.00000000     810.00000000     712.00000000
       729.00000000     702.00000000     624.00000000     591.00000000     574.00000000     540.00000000     606.00000000     623.00000000     658.00000000     639.00000000     540.00000000     658.00000000     581.00000000     561.00000000     546.00000000     535.00000000     536.00000000     539.00000000     537.00000000     538.00000000
       532.00000000     549.00000000     533.00000000     555.00000000     548.00000000     546.00000000     542.00000000     575.00000000     561.00000000     538.00000000     540.00000000     566.00000000     843.00000000     645.00000000     816.00000000     545.00000000     541.00000000     540.00000000     540.00000000     834.00000000
       540.00000000     557.00000000     849.00000000     542.00000000     892.00000000     917.00000000     560.00000000     931.00000000     542.00000000     973.00000000     542.00000000     547.00000000     538.00000000     539.00000000     796.00000000     994.00000000     792.00000000     794.00000000     840.00000000     536.00000000
       537.00000000     537.00000000     819.00000000     833.00000000     866.00000000     807.00000000     754.00000000     652.00000000     625.00000000     598.00000000     765.00000000     632.00000000     647.00000000     647.00000000     662.00000000     537.00000000     684.00000000     537.00000000     653.00000000     537.00000000
       542.00000000     651.00000000     622.00000000     538.00000000     620.00000000     583.00000000     541.00000000     558.00000000     551.00000000     542.00000000     551.00000000     539.00000000     543.00000000     552.00000000     568.00000000     609.00000000     729.00000000     562.00000000     541.00000000     789.00000000
       794.00000000     538.00000000     839.00000000     868.00000000     538.00000000     538.00000000     873.00000000     852.00000000     538.00000000     865.00000000     537.00000000     906.00000000     561.00000000     925.00000000     565.00000000     610.00000000     535.00000000     538.00000000     836.00000000     964.00000000
       533.00000000     531.00000000     867.00000000     795.00000000     800.00000000     538.00000000     539.00000000     756.00000000     779.00000000     849.00000000     844.00000000     847.00000000     816.00000000     782.00000000     786.00000000     536.00000000     535.00000000     748.00000000     538.00000000     532.00000000
       633.00000000     615.00000000     688.00000000     535.00000000     652.00000000     657.00000000     644.00000000     534.00000000     604.00000000     544.00000000     560.00000000     541.00000000     536.00000000     538.00000000     536.00000000     562.00000000     539.00000000     560.00000000     563.00000000     538.00000000
       564.00000000     537.00000000     544.00000000     574.00000000     635.00000000     568.00000000     706.00000000     542.00000000     539.00000000     852.00000000     573.00000000     535.00000000     820.00000000     543.00000000     566.00000000     840.00000000     576.00000000     539.00000000     874.00000000     916.00000000
       955.00000000     539.00000000     539.00000000     577.00000000     545.00000000    1029.00000000     847.00000000     809.00000000     761.00000000     829.00000000     843.00000000     808.00000000     819.00000000     750.00000000     838.00000000     533.00000000     542.00000000     849.00000000     833.00000000     766.00000000
       779.00000000     745.00000000     676.00000000     673.00000000     643.00000000     654.00000000     535.00000000     534.00000000     636.00000000     668.00000000     665.00000000     677.00000000     652.00000000     548.00000000     631.00000000     632.00000000     597.00000000     535.00000000     544.00000000     559.00000000
       533.00000000     533.00000000     534.00000000     553.00000000     578.00000000     555.00000000     568.00000000     570.00000000     549.00000000     542.00000000     580.00000000     574.00000000     576.00000000     628.00000000     823.00000000     537.00000000     763.00000000     560.00000000     537.00000000     838.00000000
       536.00000000     578.00000000     884.00000000     578.00000000     923.00000000     943.00000000     963.00000000     534.00000000     587.00000000     531.00000000     540.00000000     547.00000000     588.00000000    1008.00000000     534.00000000     621.00000000     549.00000000     840.00000000    1049.00000000    1079.00000000
       871.00000000     856.00000000     767.00000000     542.00000000     540.00000000     816.00000000     801.00000000     833.00000000     837.00000000     781.00000000     794.00000000     840.00000000     779.00000000     549.00000000     803.00000000     698.00000000     737.00000000     670.00000000     687.00000000     671.00000000
       670.00000000     699.00000000     629.00000000     544.00000000     538.00000000     531.00000000     549.00000000     533.00000000     535.00000000     540.00000000     608.00000000     584.00000000     558.00000000     547.00000000     538.00000000     583.00000000     569.00000000     576.00000000     560.00000000     558.00000000
       569.00000000     574.00000000     598.00000000     579.00000000     576.00000000     663.00000000     628.00000000     579.00000000     674.00000000     553.00000000     563.00000000     751.00000000     811.00000000     756.00000000     557.00000000     561.00000000     587.00000000     554.00000000     873.00000000     568.00000000
       591.00000000     560.00000000     895.00000000     555.00000000     558.00000000     559.00000000     933.00000000     590.00000000     562.00000000     565.00000000     980.00000000     561.00000000     551.00000000     561.00000000     562.00000000     564.00000000     564.00000000     566.00000000    1037.00000000     598.00000000
       541.00000000     559.00000000     595.00000000     572.00000000     568.00000000     794.00000000    1114.00000000     858.00000000     846.00000000     832.00000000     805.00000000     806.00000000     789.00000000     809.00000000     854.00000000     812.00000000     736.00000000     746.00000000     798.00000000     769.00000000
       702.00000000     752.00000000     680.00000000     564.00000000     565.00000000     666.00000000     655.00000000     657.00000000     564.00000000     566.00000000     662.00000000     642.00000000     599.00000000     597.00000000     685.00000000     566.00000000     563.00000000     575.00000000     556.00000000     655.00000000
       560.00000000     566.00000000     564.00000000     563.00000000     592.00000000     565.00000000     563.00000000     572.00000000     578.00000000     575.00000000     582.00000000     571.00000000     568.00000000     596.00000000     588.00000000     564.00000000     566.00000000     627.00000000     743.00000000     631.00000000
       574.00000000     570.00000000     566.00000000     764.00000000     601.00000000     568.00000000     892.00000000     565.00000000     603.00000000     950.00000000     980.00000000     605.00000000     564.00000000     602.00000000    1030.00000000     563.00000000     564.00000000     563.00000000     562.00000000    1085.00000000
       563.00000000     562.00000000     819.00000000    1080.00000000     875.00000000     817.00000000     852.00000000     802.00000000     820.00000000     774.00000000     793.00000000     741.00000000     566.00000000     565.00000000     564.00000000     777.00000000     724.00000000     727.00000000     709.00000000     703.00000000
       564.00000000     767.00000000     564.00000000     562.00000000     564.00000000     669.00000000     667.00000000     650.00000000     562.00000000     636.00000000     658.00000000     640.00000000     613.00000000     631.00000000     564.00000000     604.00000000     589.00000000     596.00000000     570.00000000     579.00000000
       565.00000000     558.00000000     578.00000000     590.00000000     586.00000000     582.00000000     606.00000000     566.00000000     612.00000000     609.00000000     631.00000000     563.00000000     572.00000000     576.00000000     674.00000000     798.00000000     563.00000000     591.00000000     734.00000000     686.00000000
       562.00000000     562.00000000     756.00000000     569.00000000     786.00000000     761.00000000     563.00000000     609.00000000     927.00000000     569.00000000     564.00000000     963.00000000     564.00000000     562.00000000     562.00000000     614.00000000     968.00000000     565.00000000     563.00000000     566.00000000
       562.00000000     613.00000000     564.00000000     567.00000000     997.00000000     564.00000000     562.00000000     565.00000000     568.00000000    1010.00000000     566.00000000     561.00000000     571.00000000     568.00000000     561.00000000     998.00000000     565.00000000     567.00000000     605.00000000    1028.00000000
       567.00000000     790.00000000     569.00000000     569.00000000     562.00000000     562.00000000     564.00000000     563.00000000     597.00000000     918.00000000    1179.00000000     861.00000000     724.00000000     711.00000000     787.00000000     835.00000000     558.00000000     568.00000000     566.00000000     571.00000000
       787.00000000     729.00000000     721.00000000     648.00000000     731.00000000     717.00000000     705.00000000     694.00000000     727.00000000     692.00000000     587.00000000     568.00000000     721.00000000     696.00000000     755.00000000     704.00000000     618.00000000     615.00000000     651.00000000     611.00000000
       607.00000000     632.00000000     594.00000000     597.00000000     573.00000000     615.00000000     569.00000000     574.00000000     565.00000000     577.00000000     589.00000000     608.00000000     613.00000000     611.00000000     596.00000000     615.00000000     588.00000000     628.00000000     609.00000000     667.00000000
       568.00000000     557.00000000     555.00000000     742.00000000     636.00000000     566.00000000     562.00000000     560.00000000     560.00000000     564.00000000     569.00000000     564.00000000     565.00000000     562.00000000     562.00000000     565.00000000     793.00000000     801.00000000     563.00000000     820.00000000
       934.00000000     917.00000000     559.00000000     555.00000000     608.00000000     559.00000000     601.00000000     553.00000000     617.00000000     557.00000000     567.00000000     627.00000000     555.00000000     601.00000000     966.00000000     556.00000000     630.00000000     586.00000000     990.00000000     575.00000000
       633.00000000    1013.00000000     552.00000000    1078.00000000     568.00000000     558.00000000     555.00000000     555.00000000     557.00000000     553.00000000     557.00000000     567.00000000     556.00000000     627.00000000     571.00000000     580.00000000     583.00000000     691.00000000     641.00000000     671.00000000
       701.00000000     552.00000000     721.00000000     692.00000000     684.00000000     592.00000000     628.00000000     555.00000000     599.00000000     604.00000000     597.00000000     564.00000000     557.00000000     550.00000000     553.00000000     547.00000000     555.00000000     575.00000000     562.00000000     574.00000000
       598.00000000     922.00000000    1120.00000000     969.00000000     884.00000000     896.00000000     883.00000000     832.00000000     796.00000000     822.00000000     824.00000000     782.00000000     804.00000000     792.00000000     678.00000000     681.00000000     739.00000000     755.00000000     736.00000000     721.00000000
       701.00000000     693.00000000     703.00000000     680.00000000     694.00000000     683.00000000     683.00000000     704.00000000     618.00000000     617.00000000     614.00000000     609.00000000     618.00000000     650.00000000     612.00000000     610.00000000     644.00000000     607.00000000     602.00000000     597.00000000
       622.00000000     583.00000000     568.00000000     613.00000000     638.00000000     631.00000000     586.00000000     571.00000000     648.00000000     711.00000000     548.00000000     552.00000000     719.00000000     757.00000000     682.00000000     682.00000000     551.00000000     598.00000000     551.00000000     607.00000000
       594.00000000     670.00000000     587.00000000     599.00000000     624.00000000     547.00000000     601.00000000     599.00000000     745.00000000     574.00000000     603.00000000     585.00000000     589.00000000     550.00000000     577.00000000     549.00000000     546.00000000     581.00000000     549.00000000     567.00000000
       599.00000000     624.00000000     558.00000000     553.00000000     572.00000000     547.00000000     597.00000000     995.00000000     597.00000000     600.00000000     600.00000000     600.00000000     670.00000000     605.00000000     680.00000000     601.00000000    1055.00000000     672.00000000     628.00000000     679.00000000
       602.00000000     621.00000000     594.00000000     642.00000000     602.00000000     680.00000000     681.00000000     599.00000000     585.00000000     581.00000000     588.00000000     547.00000000     598.00000000     601.00000000     601.00000000     589.00000000     552.00000000     553.00000000     546.00000000     547.00000000
       553.00000000     559.00000000     562.00000000     565.00000000     550.00000000     547.00000000     636.00000000     671.00000000     680.00000000     647.00000000     592.00000000     584.00000000     676.00000000    1124.00000000     569.00000000     574.00000000     601.00000000     558.00000000     670.00000000     671.00000000
       674.00000000     596.00000000     577.00000000     600.00000000     584.00000000     571.00000000     577.00000000     574.00000000     561.00000000     579.00000000     585.00000000     594.00000000     547.00000000     599.00000000     599.00000000     589.00000000     554.00000000     548.00000000     553.00000000     548.00000000
       555.00000000     552.00000000     766.00000000    1167.00000000     549.00000000     561.00000000     670.00000000     588.00000000     690.00000000     670.00000000     670.00000000     670.00000000     670.00000000     642.00000000     559.00000000     745.00000000     690.00000000     591.00000000     599.00000000     569.00000000
       579.00000000     578.00000000     563.00000000     562.00000000     564.00000000     568.00000000     574.00000000     584.00000000     557.00000000     551.00000000     555.00000000     552.00000000     558.00000000     561.00000000     651.00000000     628.00000000     681.00000000    1053.00000000    1231.00000000    1017.00000000
       962.00000000     852.00000000     917.00000000     902.00000000     880.00000000     854.00000000     818.00000000     852.00000000     675.00000000     704.00000000     711.00000000     822.00000000     671.00000000     816.00000000     772.00000000     780.00000000     711.00000000     718.00000000     741.00000000     756.00000000
       685.00000000     708.00000000     680.00000000     688.00000000     673.00000000     670.00000000     671.00000000     618.00000000     612.00000000     607.00000000     628.00000000     600.00000000     605.00000000     617.00000000     574.00000000     649.00000000     563.00000000     643.00000000     561.00000000     653.00000000
       558.00000000     555.00000000     657.00000000     551.00000000     648.00000000     676.00000000     563.00000000     568.00000000     720.00000000     734.00000000     602.00000000     563.00000000     585.00000000     676.00000000     670.00000000     670.00000000     670.00000000     670.00000000     670.00000000     670.00000000
       584.00000000     670.00000000     865.00000000     591.00000000     596.00000000     577.00000000     592.00000000     568.00000000     575.00000000     561.00000000     560.00000000     572.00000000     586.00000000     584.00000000     563.00000000     571.00000000     556.00000000     563.00000000     586.00000000     573.00000000
       558.00000000     552.00000000     593.00000000     554.00000000     559.00000000     561.00000000     568.00000000     563.00000000    1113.00000000     670.00000000     650.00000000     556.00000000     552.00000000     616.00000000     563.00000000     581.00000000     721.00000000     653.00000000     670.00000000     582.00000000
      1194.00000000     565.00000000     575.00000000     562.00000000     563.00000000     670.00000000     670.00000000     764.00000000     680.00000000     670.00000000     794.00000000     670.00000000     640.00000000     578.00000000     576.00000000     583.00000000     569.00000000     583.00000000     563.00000000     583.00000000
       581.00000000     577.00000000     566.00000000     563.00000000     562.00000000     560.00000000     554.00000000     553.00000000     559.00000000     553.00000000     560.00000000     574.00000000     559.00000000     560.00000000     569.00000000     576.00000000     564.00000000     576.00000000     575.00000000     569.00000000
       564.00000000     554.00000000     560.00000000     558.00000000     560.00000000     554.00000000     560.00000000     553.00000000     644.00000000     737.00000000     590.00000000    1210.00000000     561.00000000     776.00000000     593.00000000     661.00000000     580.00000000     563.00000000    1234.00000000     679.00000000
       686.00000000     576.00000000     570.00000000     564.00000000     563.00000000     563.00000000     567.00000000     571.00000000     574.00000000     575.00000000     574.00000000     557.00000000     564.00000000     558.00000000     555.00000000     556.00000000     561.00000000     561.00000000     681.00000000     673.00000000
       670.00000000     670.00000000     670.00000000     671.00000000     670.00000000     681.00000000     710.00000000     558.00000000    1236.00000000     579.00000000     686.00000000     576.00000000     575.00000000     574.00000000     569.00000000     568.00000000     575.00000000     572.00000000     560.00000000     574.00000000
       579.00000000     573.00000000     555.00000000     570.00000000     561.00000000     563.00000000     566.00000000     565.00000000     563.00000000     653.00000000     562.00000000     661.00000000     579.00000000     670.00000000    1090.00000000    1209.00000000     918.00000000    1219.00000000    1157.00000000    1030.00000000
       952.00000000     934.00000000     842.00000000     883.00000000     877.00000000     907.00000000     902.00000000     836.00000000     860.00000000     670.00000000     679.00000000     805.00000000     842.00000000     775.00000000     716.00000000     670.00000000     683.00000000     725.00000000     693.00000000     663.00000000
       670.00000000     599.00000000     617.00000000     597.00000000     583.00000000     595.00000000     598.00000000     580.00000000     659.00000000     567.00000000     647.00000000     573.00000000     668.00000000     581.00000000     660.00000000     569.00000000     577.00000000     678.00000000     694.00000000     575.00000000
       578.00000000     583.00000000     696.00000000     797.00000000     593.00000000     670.00000000     977.00000000     587.00000000     577.00000000     670.00000000    1217.00000000     729.00000000     755.00000000     580.00000000     576.00000000     575.00000000     579.00000000     578.00000000     580.00000000     576.00000000