# File generated by Flopy version 3.9.3 on 09/05/2025 at 16:06:09.
BEGIN options
  SAVE_FLOWS
  NEWTON  UNDER_RELAXATION
END options

BEGIN packages
  disv6  mf6Model.disv  disv
  ic6  mf6Model.ic  ic
  npf6  mf6Model.npf  npf
  sto6  mf6Model.sto  sto
  rch6  mf6Model.rcha  rcha_0
  evt6  mf6Model.evta  evta_0
  drn6  mf6Model.drn  drn_0
  ghb6  mf6Model.ghb  ghb_0
  oc6  mf6Model.oc  oc
END packages

