# File generated by Flopy version 3.9.3 on 09/05/2025 at 16:06:10.
BEGIN options
END options

BEGIN griddata
  strt  LAYERED
    INTERNAL  FACTOR  1.0
         544.28498969     548.36882742     541.31835229     539.30818188     546.00371803     546.60994852     542.72567172     550.39067612     540.68913208     539.21258171     550.53446881     552.21122870     567.80532318     544.29507604     548.18880426     542.04525176     551.64429538     539.93032170     537.81118021     554.66487575
         556.39201224     546.00245017     553.86844687     543.66059306     549.80358531     540.92110358     555.58494175     536.46324917     537.96693777     559.10772400     563.81302960     561.08286913     547.68119908     558.88933677     544.99057596     553.49248709     542.09905289     557.72073381     539.25500120     535.09977971
         570.74222700     587.76439954     551.42880465     567.84999758     549.26097255     564.83596138     546.60828123     561.18220018     543.30863024     554.86246332     540.32405653     560.27094256     537.78909012     532.79029146     573.63627243     576.45229749     552.58032475     573.43066579     550.33558355     570.35061614
         547.59113729     567.00334975     544.58589045     563.77106701     541.82268329     556.91855086     539.27161684     561.27303637     535.80730511     579.73991680     584.51629304     581.92772631     553.65123805     579.00949310     551.25140515     575.88765761     548.62065228     572.61762524     546.10594781     568.67122502
         543.34140915     564.86238028     540.32557341     536.86126167     566.42491006     529.52935256     532.63303551     589.74683086     557.96207025     586.99876030     554.87888124     584.17441562     552.16600473     581.23428748     549.55714606     578.04539700     546.88954084     574.55948963     544.69617935     570.45429506
         541.24218458     562.72571809     537.91521824     568.70817599     534.07470079     525.79414514     592.64410730     594.82081875     611.47657380     559.93638429     592.15738671     557.42017081     589.10648039     554.55854318     586.28849508     550.91001284     583.13655216     548.12795384     579.88958084     544.91430225
         576.61029863     541.21594872     572.64970217     537.93612649     564.77302077     534.48063567     569.77717983     529.95320023     523.10296035     597.86380175     600.31101059     562.00176079     597.41523316     558.92478939     594.39204297     555.81715930     591.17942210     552.16862896     588.43742578     549.13618224
         585.06763268     545.12815873     581.37190246     541.18971285     578.48098075     537.87160627     574.25032515     534.36208177     566.22096884     530.33587910     571.42047329     525.63417688     603.15662076     607.50092093     605.21337601     562.85275059     602.47846917     559.48453233     599.38493230     555.92851254
         596.31703759     552.87828015     593.22928141     549.32425740     590.16583449     545.34201522     586.21254433     541.33399171     582.36359586     537.75305237     579.44303225     534.24036110     575.60900487     529.83301265     525.31012543     576.13221387     513.64487186     520.03606302     612.88488231     628.25526995
         567.55774286     610.00047850     563.82497883     607.11607469     559.38889708     604.11526502     555.98248332     601.10095826     552.77173599     598.08665149     549.32071497     595.05717234     545.34902289     591.23206351     541.43320076     587.32278322     537.62236223     583.41363264     534.10886895     579.96624125
         528.81486592     572.07176775     523.76416434     575.38042724     518.48322973     516.42123124     615.66456491     617.22562840     567.89193318     614.42790857     563.56846818     611.54350476     559.51319434     608.54122600     556.13576421     605.50951529     552.75833408     602.53580269     549.31717254     599.56209010
         545.41490590     596.22022451     541.55607689     592.39910112     537.69724789     588.49156675     533.23427138     584.48285121     527.79671919     579.64297333     522.35916700     571.13298159     518.86201603     530.41215564     532.01051649     517.74750140     517.91519128     600.40438795     620.59676977     624.94552205
         567.03254203     622.05789540     562.80460824     618.98979593     558.80501557     615.96869042     555.41304816     612.97318057     552.02108075     609.92702065     548.92993148     606.88086072     545.04607517     603.78002257     541.06984841     597.02875334     593.54953334     538.70408207     584.28795195     579.13064489
         536.34821159     570.26804021     565.72152292     556.83877087     553.44680346     524.68369585     547.36791452     544.36020298     523.50656351     540.83931569     529.65065591     522.10435655     525.60589359     523.69502672     520.04603431     518.93045003     518.99592381     605.00110797     519.13206474     518.89165419
         614.35079996     611.30432521     589.44525900     608.27171786     601.55323920     598.11483079     574.42654065     589.70680148     519.57797731     519.16220494     584.55642125     574.27667382     561.17500562     569.25456313     559.54540301     519.47350525     519.35256501     550.26195384     554.99888571     548.90350333
         547.34234480     543.19010826     542.45302331     540.52573600     538.00293583     532.86021950     521.70158865     519.78054267     528.13778382     530.00603082     528.38980663     521.40186092     527.64966820     525.61434765     521.71754951     518.68830835     518.65297477     617.51000907     620.84539284     518.72186785
         518.61764119     623.89618692     519.06139759     518.78738458     626.94698100     528.04653128     519.15799682     519.62193709     519.88976394     630.07098688     519.65670123     609.71827036     633.17403900     653.05308926     615.72594255     612.68187388     522.30230561     521.35913320     594.67642239     599.43428174
         595.72974016     585.49819147     579.40604101     580.34781123     571.03974792     523.70384890     565.70360235     564.09192030     554.97640817     520.48192968     520.79917919     552.37023991     542.58277109     551.59397620     536.93496773     539.55450136     522.44622803     530.76313348     519.64364326     545.28852654
         528.93484474     527.92193880     520.88754699     526.75918315     527.27520921     523.06173665     520.27814230     521.08608003     549.18314609     526.23234006     520.08903873     606.36506935     522.08400569     520.58458178     618.99628466     520.64789634     622.71001347     521.65214942     520.96514586     625.80850910
         628.85930318     521.43367823     521.59964490     632.12051948     522.06817727     524.37717826     522.77389182     525.21558264     635.27483321     528.30097621     523.17527669     527.43063383     522.94733243     527.05962375     521.91689441     523.56545425     522.61550118     617.10108514     638.43142681     620.48256024
         602.87269015     614.12842638     604.22695223     590.63351372     596.62944148     586.43698861     575.23597484     581.28958146     567.51623867     560.34000526     528.52427002     528.41648105     557.75729154     550.80908138     555.30882570     550.26685563     547.29244782     537.52247457     529.67581335     528.81521842
         529.33132364     528.25052993     528.12453605     528.32159366     546.57284963     528.44500469     535.42258706     526.68861366     522.77532378     527.80164392     526.10734780     525.44825832     527.70228673     524.58221167     533.77522785     524.33019664     523.26697763     528.26924637     523.27671357     571.99904894
         524.07383296     527.17295186     526.36631460     607.72903073     525.59896909     525.09059038     526.61643673     526.24542665     525.19310709     525.07323918     624.19628905     524.10952334     523.72632928     627.72083128     525.70148580     524.46608230     527.54396195     527.31033895     526.94568833     526.68219177
         524.81142706     526.28871891     526.21523450     525.42979814     526.41869521     527.86685408     525.16798602     630.77162536     526.41640190     634.12374694     637.48357263     527.52264595     526.38079070     527.62941198     525.95342238     525.69161026     527.74978495     526.97807702     528.18974622     529.07765851
         528.54262386     527.36844400     528.34624297     640.47867954     529.44249709     528.79490949     530.24277109     527.31333113     527.90539967     527.59273452     621.90064732     643.40185156     625.68070492     611.16482286     618.33550285     615.38913869     602.08883511     600.75373269     530.54659988     530.40049254
         591.53321504     597.52914280     587.33668993     529.64256869     529.97754553     582.23135168     576.19527586     572.95834996     560.85472360     552.86035985     558.14928265     551.26095375     540.78816733     546.13634817     530.91219832     530.86823408     562.15264158     529.78694426     529.38922158     529.27097242
         530.29954133     530.73995062     530.25438520     529.09601236     528.92105230     528.86651666     528.21886072     525.22937893     530.83684398     531.79219344     527.40165771     529.22821381     528.45737504     531.86465677     529.14585626     568.76212305     528.67864594     535.33841312     528.63287622     530.06431362
         530.28347463     608.94226504     529.01104890     529.49520718     629.39629345     528.96527918     529.11703450     529.96124978     529.42533698     530.22995156     529.80406492     632.76714871     529.35067494     529.13148066     636.12697440     530.20395150     529.68384676     529.45666054     639.48680009     530.14832460
         642.81289534     531.01588208     530.69270722     645.68252588     530.62005604     648.72400497     630.75381544     673.45993628     531.49564456     531.76502499     626.90319401     623.14971766     612.43149192     531.22626412     531.36609408     616.32291307     613.28835375     605.53488111     602.74929217     592.43291636
         593.52851819     588.30707164     573.91765098     566.03509482     563.96527789     531.67669018     563.25054476     555.24321885     557.06025498     577.15457688     531.36095434     552.66622938     540.52920963     539.57960276     532.52771839     530.74559786     530.83881455     531.04343085     531.19719418     531.34763099
         530.31700032     529.86654320     530.49258429     532.79587766     529.72100505     532.05723598     532.92274626     540.06552808     532.13544483     531.18110367     532.01641425     534.52038319     606.15667610     578.11387790     634.51147364     532.17353981     531.23825824     531.37294846     531.00206557     637.97114525
         531.43757137     532.89371996     641.43081686     531.45239962     644.84985325     648.14356513     533.69058198     651.72292053     531.51105078     655.30227593     531.62448084     532.16155584     531.89971521     531.64232889     632.36516215     658.88163133     636.01644579     628.31897264     619.63928050     532.49381127
         532.51081431     532.48006639     617.59937433     614.16760065     609.64595139     606.86041086     594.67279774     579.46017952     575.88826005     569.87658212     598.54740251     568.17606437     565.44893357     560.42262848     562.69597432     532.11674319     583.14016482     532.16909565     558.36795865     532.34126317
         532.85301830     553.35131319     546.83435648     531.91170933     547.48698238     540.30877285     532.57516700     534.77240165     534.66349964     532.41601917     535.04622675     531.85134097     532.89870618     534.83764270     537.91681998     547.81865012     589.65542094     534.13837794     532.71136952     624.48530477
         603.27197816     531.96477104     639.47965401     642.93932562     532.32355422     532.05970811     646.34503378     649.57129126     532.52123592     653.41204008     532.28656824     657.25278889     536.56359124     661.09353771     538.10703259     571.96582849     532.47542215     532.59579766     640.98816277     665.31801858
         533.27400007     532.74663009     644.32229795     637.50753844     620.95024527     532.61092172     532.76876501     629.85077050     625.64476718     618.84103112     610.50281322     615.53525297     608.01672411     598.97238795     604.09144673     532.60012653     532.56367729     595.63671646     532.97555571     532.68871068
         580.96177985     577.67001214     584.49263245     532.51495243     570.31703393     563.24248526     558.89401935     532.79260290     548.08905403     533.37495286     533.48869994     533.02910489     532.68595864     532.51008142     532.46387361     539.08308892     532.66792472     540.67288554     541.89155185     532.61631931
         544.23212506     534.36229862     535.95428283     546.11467981     554.38565128     540.34530513     591.22326547     532.97233561     532.73874998     647.56787161     538.58895561     532.59401301     650.75578693     533.13388291     541.09050366     654.42731707     542.18046785     532.75796982     658.26806588     662.10881469
         665.94956351     532.75257223     532.92180129     543.35601511     534.54408287     669.68878462     642.34775266     651.95746764     633.97650887     648.79070943     645.54513578     638.80090298     622.18583949     631.19463731     619.60490638     533.63873247     534.72196809     611.78298958     616.04696724     599.78655715
         605.14492554     597.26809460     586.12929572     587.72052451     582.55300864     579.08393077     533.98348089     532.86939930     574.05507485     575.87984476     567.58990313     572.45800349     563.16628429     535.72536740     554.01434868     558.85137784     548.07425920     534.01432686     534.69793584     539.24350031
         532.93109123     533.77735477     533.07261948     535.30224333     545.09756843     538.32711046     546.85866102     548.69967389     538.20592096     536.02050754     550.59894454     540.48838360     543.59186387     552.50661061     608.93837331     533.85073944     626.94492003     539.31023455     532.58609468     655.44259405
         532.89358382     543.20072463     659.28334287     545.21595892     663.12409168     666.96484049     670.81759347     532.52465088     546.34583006     533.29398404     533.50856211     536.31065259     547.94880289     674.68133982     532.32143070     554.26136652     537.25046412     643.79598785     678.40927884     695.07103121
         660.29861985     656.45787104     635.31589042     535.08918510     532.86506175     653.15914835     650.18849967     623.18174630     639.90686009     631.92467216     620.07081464     612.52479917     616.66906227     535.98581935     609.59800802     598.08400148     601.25978094     584.14423743     577.12419081     568.04100699
         573.09963610     592.88804039     563.09216034     534.72581976     531.97668228     532.94923562     534.71130951     532.61357749     534.06616769     534.43102954     558.83590543     550.17644026     539.40712718     535.67771875     533.98530940     549.69289883     542.88473996     551.43699478     542.04954329     541.00971022
         553.16898533     555.09613843     557.00380450     545.91614354     547.53378502     564.80863471     558.93342926     543.94130070     593.83483770     539.13008717     543.83045764     605.88083345     646.98777519     627.78391803     540.99236613     542.86068408     547.20617455     538.80525393     664.13936867     544.60714027
         549.10175341     542.87198918     667.99763325     536.11927352     537.78857346     539.45787339     671.86137960     550.67362565     545.08828277     544.52326523     675.72512595     541.12717333     538.29243023     543.07943090     542.79647327     545.02457700     545.25603285     545.47185749     679.38634434     552.59752141
         536.70911970     540.43755791     554.35365813     544.77489035     545.42378293     648.51136638     683.02058617     665.17767303     661.31392667     657.51931006     636.02479656     654.53316287     651.63709312     623.37162304     641.05231963     636.79208859     628.37645487     617.70102047     613.14416661     613.74241142
         601.97089530     606.50605965     598.83344412     546.66562057     546.40817567     594.62917465     589.31175331     585.42336557     546.07758142     546.09917120     581.22070634     573.50573331     560.16135607     555.63824962     580.49784940     545.78901533     546.43217339     545.98079602     540.57984265     567.92319625
         544.29331561     545.94759424     546.32871339     545.72298945     554.44956101     546.45662199     546.56216057     544.85876538     555.61649290     557.51296989     559.50984699     545.51035733     546.21913722     561.50099838     550.53549892     548.96015514     548.84801472     563.39061485     573.03278169     568.32929347
         548.52110675     545.50765797     546.92791712     624.08688035     552.65806056     545.67540805     669.04141938     546.12566689     555.05062927     672.90516573     676.76891208     557.09595342     547.54590027     558.51189800     680.47197268     546.82940474     548.22834816     547.05829704     546.90396129     683.77582888
         546.94613524     547.13252662     658.76595993     687.30150787     666.22145916     645.24422303     662.35771281     655.85563097     645.78274263     632.56520470     637.52947956     625.26642234     547.02519593     547.34927330     547.47597784     620.70714118     611.18414273     603.35338954     602.75102546     599.31161946
         546.91130481     610.16131951     546.72099455     547.99742805     546.87157869     586.65029021     577.47607502     578.18673815     545.43707231     573.97463778     590.02627011     567.09981561     564.68125718     562.36284941     548.25815315     554.40586071     551.61261771     551.79674734     547.71829288     549.79398177
         546.87402653     545.32879315     549.76967496     559.90610109     562.01953961     551.23328892     564.13297813     549.55249030     566.63417360     553.87164892     569.22921075     548.21969192     551.39289305     552.26062018     571.23109019     580.90045417     547.74367471     552.34186647     614.99975968     591.06549879
         547.13497446     547.32381367     621.69087748     550.45689809     649.38825663     633.22857228     547.17470057     556.91671471     670.08520551     550.58067751     547.17714841     673.94895186     548.41962414     547.47782245     548.06738634     559.24960133     677.81269822     547.29323706     547.51754856     547.61731443
         548.26731855     561.64875114     548.69570914     548.00474407     681.55760101     547.44299201     547.91508076     547.49060989     548.01206009     684.86145721     549.95235472     549.17172635     548.39948973     548.32882144     548.19116576     688.16531341     547.69529874     547.88535555     563.00610475     691.25204395
         548.85027165     652.94530201     548.77273428     548.39007220     549.01712243     548.11501297     547.74611389     548.03886018     565.02472035     678.85648435     712.63100924     667.31207796     623.11944122     625.40765592     654.11176398     641.69938501     549.30853752     548.82893895     548.55560890     548.49940422
         642.16498640     633.78172959     629.20966356     563.79762041     618.16032601     621.34956019     616.59235966     614.76861591     607.09174894     612.45444074     551.06213452     549.43499388     608.01529698     595.15882222     603.66651135     595.50016949     556.75688122     555.92189819     582.41851418     555.10734615
         554.10596337     570.63922883     553.35492628     552.14616629     550.49383298     557.53740901     548.97531808     548.66340225     550.42837193     551.83732310     566.80223784     553.59851206     568.91545654     555.03529881     553.06251566     571.91985671     552.45211509     575.06780665     557.58250395     577.06968609
         551.20139814     550.37891659     550.88751725     579.07156553     559.34165564     548.28074018     549.72327045     550.23792357     549.53124884     548.11674215     548.71960693     548.44627688     548.19951049     548.40498914     550.31219336     550.16665970     657.02209294     646.29496410     548.33694485     663.57286393
         682.64322935     674.99273800     549.35068964     548.80391394     555.70616667     548.36504719     553.93024278     548.53058389     560.51616378     550.90371166     552.06912527     563.94964555     548.33848352     554.44489589     685.94708555     548.74405624     566.05551837     552.87102074     689.25094175     552.77527329
         568.29079715     692.71017141     548.63991591     696.21477372     550.62633550     549.99805122     549.22423328     548.44935420     550.03984949     548.58678856     551.24277876     552.53857201     549.08312335     571.85875132     551.08601130     553.64300041     551.62999134     587.09113591     574.89251187     582.71040228
         618.43758133     548.69612059     599.68181841     620.07518482     623.36964791     552.18121384     570.18319192     548.42279053     554.55546420     555.98633981     554.60647499     550.77186916     550.45772702     549.91374698     548.50555888     548.67109558     551.75137941     553.54725296     553.04717266     554.15765353
         553.62658953     683.72885768     699.71937602     687.03271388     671.12899164     679.90027048     676.03652413     668.54836410     660.09391212     664.80915007     658.23976796     650.27708006     651.16564338     646.98357754     624.83985303     624.24401608     637.99204394     638.41055638     634.15906685     629.63103418
         626.24290426     622.58164607     627.49559951     618.41546782     591.36175996     617.52194853     614.28788838     612.64973499     556.80670416     557.26644097     556.77039637     556.79693589     556.77674496     578.39653652     556.73718107     556.71731734     568.37339618     556.68290174     555.27090200     556.78831577
         571.96070941     555.12112810     553.91103483     574.08542611     577.20553982     580.38741313     551.91782871     551.46720492     582.90828199     584.90174728     549.68387534     549.85829664     593.15070376     586.57047217     621.39363276     616.25995071     549.59172400     552.90390168     548.55832828     556.75836404
         553.26544029     622.24741812     557.83934018     553.98087810     558.89883997     549.09777692     555.76947262     555.05403481     608.83226517     551.32338552     556.70419774     551.86560701     561.07873392     550.15607979     555.43586900     548.58986589     549.01347268     557.45446550     549.93079110     554.08056838
         563.99372760     567.50282115     550.60670358     552.09044651     555.31383911     549.06692894     556.83682696     690.47639412     553.30340708     554.12172981     555.19488652     555.91032433     617.21753310     556.72417173     620.63405904     556.71103471     693.98099642     623.30861500     563.93494684     619.23865640
         556.73394420     567.42273730     556.77602107     570.73375993     556.75948578     616.17900214     615.98042228     556.81354353     556.77826455     556.79479983     556.75223591     549.48014410     556.40889494     555.69345713     554.62030042     552.32413807     550.27831853     551.22658435     548.77645921     549.15175905
         551.81171060     553.35409565     553.99125763     554.08903131     549.72993724     549.14009510     574.38962839     621.01081237     625.23322788     578.82734910     556.72932642     556.81133512     619.92457220     697.48559872     554.61358937     555.30386982     557.71610000     553.06077461     617.97502408     623.83436765
         619.33849810     557.27948422     556.84777091     553.76193813     556.84664917     556.81357860     551.40487802     556.79704332     550.72894233     556.77052762     556.74761814     556.71325390     549.60238284     556.19202774     555.11887103     552.78266912     550.35981103     549.46819948     550.97900126     549.43266797
         551.61616324     550.09794699     603.98184690     700.99020103     549.83183538     553.69793659     620.28985161     557.15901038     587.53952842     618.97044420     617.71501739     621.41520669     622.60044284     573.56414599     552.44887258     599.97296308     591.75736509     555.86672695     554.22046919     556.88514761
         557.25530589     551.82413574     556.84174675     550.81043482     556.82521147     556.79796519     556.77505570     553.47046570     550.48204978     549.92935967     550.78345390     550.29299556     551.45496628     553.50238923     575.47980230     570.95499127     625.40198082     691.74721912     704.84526356     688.24261682
         684.80780297     672.28757813     677.26307829     673.52386426     669.78465023     659.47123069     661.42358382     655.74478015     624.38243143     626.22653567     627.22008345     655.14578843     622.32938998     647.10131064     642.64671510     638.71594190     627.68399552     629.95695421     630.27802183     634.20180645
         614.76559999     595.97462113     616.56858159     615.17131975     617.33354090     582.84811270     617.28363598     566.44618519     560.19998652     563.16546834     561.04695751     558.27699711     558.17291800     558.89378790     557.47440409     577.42649941     554.62355866     579.85096098     552.15555154     582.66186002
         551.18885467     550.78968726     585.67309624     550.12440824     588.74687789     590.69609307     556.84567950     561.50649600     592.21311570     600.88980450     560.29636956     551.07413226     556.74069147     623.55935459     618.24378034     619.00287936     618.20193902     622.08359327     621.51623137     619.40397240
         557.58107236     617.63230472     666.04543620     556.71778198     558.55837177     557.53668055     554.90826577     557.16652227     552.51193232     556.86052552     556.84399023     556.78189267     563.71929767     556.05216025     554.63352795     558.33344030     550.41698111     554.93431027     554.88753013     553.67899560
         550.33823038     550.62109994     567.39327496     550.98473584     551.91612646     552.79271353     560.24480953     555.54631398     695.25182143     619.57465426     579.16312086     551.25084744     550.71862423     570.83728920     556.81625691     556.75667429     612.59056272     574.14529615     620.17411664     558.00313435
         698.75642373     556.81394802     556.77958378     553.20961551     554.80630102     621.48033415     620.10639302     607.99243159     616.64605731     618.95679335     603.90960527     618.14493850     575.17240498     556.75898318     557.95874254     556.72461895     557.58858426     556.72231006     556.83684433     556.32533020
         554.63199935     553.92899676     552.49119669     552.24119553     551.53266331     551.28266215     550.31945682     550.68309271     551.65001486     551.08226012     552.18223807     556.78642075     556.87215838     557.03334684     556.82078498     556.77336265     556.83454862     556.73152746     555.78475352     554.36459263
         553.41781869     552.55640806     551.99765780     551.08787622     553.20950166     551.90331447     553.47073910     552.16455191     570.05123122     595.66242052     559.12112109     702.26102603     553.73197653     599.89309851     558.83974643     578.11737323     558.28450901     555.44740667     705.76562834     623.11861487
         587.79545573     558.24011720     557.86995892     556.86429507     556.94456322     557.31472150     556.86198619     556.84086266     556.82493672     556.79839350     555.99073376     552.81764550     553.62379893     551.69496100     552.41128977     554.12360498     554.77669858     555.03793601     616.50341557     617.17256303
         617.59042418     618.88643116     621.12436432     617.03747980     617.38254574     615.89692030     591.52344411     554.38484242     709.14314814     558.77377321     615.04811736     558.33189855     556.81431943     557.97157940     556.88258679     554.57057286     557.07078151     557.43110066     552.20363803     556.89243672
         556.87575460     554.87954322     553.59716748     553.93276929     554.32948609     556.10830264     556.73563779     556.99687523     556.88913132     580.99041166     552.60558817     582.93710877     556.85982866     620.04804872     692.56072262     703.11582084     681.00229232     699.59745477     696.07908869     689.04235655
         677.68667504     673.90594124     662.75325552     666.34447364     663.19401525     659.76548084     656.16323574     651.44065055     647.17005506     621.45787803     623.59773271     642.84751413     643.00272291     633.72249935     626.96331109     622.13362054     623.98386335     612.08793058     614.43488299     583.07109692
         616.12144129     560.17813147     562.22756811     560.14583509     559.15114094     559.67457110     560.71706546     556.90229782     585.61649586     558.00877708     588.42739490     558.64988272     591.23829393     566.33399396     594.14065266     557.38873139     561.37076650     596.49043886     598.00746149     559.93209401
         558.09402201     558.69723427     599.52448413     608.02273634     568.73672243     616.78196824     685.26251096     559.05253686     558.61066221     618.07783773     706.63418691     611.96551862     608.00184745     556.88637189     558.08723205     557.80846840     556.97962490     556.29970412     557.07228381     557.26798966