# File generated by Flopy version 3.9.3 on 09/05/2025 at 16:06:11.
BEGIN options
END options

BEGIN dimensions
  MAXBOUND  289
END dimensions

BEGIN period  1
  10 1 5.44284990E+02 1.00000000E-02
  10 2 5.48368827E+02 1.00000000E-02
  10 3 5.41318352E+02 1.00000000E-02
  10 4 5.39308182E+02 1.00000000E-02
  10 5 5.46003718E+02 1.00000000E-02
  10 9 5.40689132E+02 1.00000000E-02
  10 10 5.39212582E+02 1.00000000E-02
  10 11 5.50534469E+02 1.00000000E-02
  11 12 5.52211229E+02 1.00000000E-02
  12 13 5.67805323E+02 1.00000000E-02
  10 18 5.39930322E+02 1.00000000E-02
  10 19 5.37811180E+02 1.00000000E-02
  11 20 5.54664876E+02 1.00000000E-02
  11 28 5.36463249E+02 1.00000000E-02
  10 29 5.37966938E+02 1.00000000E-02
  11 30 5.59107724E+02 1.00000000E-02
  12 31 5.63813030E+02 1.00000000E-02
  10 40 5.35099780E+02 1.00000000E-02
  13 41 5.70742227E+02 1.00000000E-02
  15 42 5.87764400E+02 1.00000000E-02
  11 53 5.37789090E+02 1.00000000E-02
  6 54 5.32790291E+02 1.00000000E-02
  12 55 5.73636272E+02 1.00000000E-02
  13 56 5.76452297E+02 1.00000000E-02
  10 69 5.35807305E+02 1.00000000E-02
  14 70 5.79739917E+02 1.00000000E-02
  15 71 5.84516293E+02 1.00000000E-02
  11 86 5.29529353E+02 1.00000000E-02
  10 87 5.32633036E+02 1.00000000E-02
  16 88 5.89746831E+02 1.00000000E-02
  11 106 5.25794145E+02 1.00000000E-02
  16 107 5.92644107E+02 1.00000000E-02
  16 108 5.94820819E+02 1.00000000E-02
  17 109 6.11476574E+02 1.00000000E-02
  11 128 5.29953200E+02 1.00000000E-02
  10 129 5.23102960E+02 1.00000000E-02
  16 130 5.97863802E+02 1.00000000E-02
  11 152 5.25634177E+02 1.00000000E-02
  16 153 6.03156621E+02 1.00000000E-02
  16 154 6.07500921E+02 1.00000000E-02
  7 177 5.13644872E+02 1.00000000E-02
  10 178 5.20036063E+02 1.00000000E-02
  17 179 6.12884882E+02 1.00000000E-02
  17 180 6.28255270E+02 1.00000000E-02
  10 206 5.16421231E+02 1.00000000E-02
  17 207 6.15664565E+02 1.00000000E-02
  17 208 6.17225628E+02 1.00000000E-02
  10 236 5.17747501E+02 1.00000000E-02
  11 237 5.17915191E+02 1.00000000E-02
  17 239 6.20596770E+02 1.00000000E-02
  17 240 6.24945522E+02 1.00000000E-02
  11 275 5.20046034E+02 1.00000000E-02
  7 279 5.19132065E+02 1.00000000E-02
  2 280 5.18891654E+02 1.00000000E-02
  10 296 5.19473505E+02 1.00000000E-02
  11 315 5.21717550E+02 1.00000000E-02
  10 326 5.28046531E+02 1.00000000E-02
  2 328 5.19621937E+02 1.00000000E-02
  16 330 6.30070987E+02 1.00000000E-02
  6 331 5.19656701E+02 1.00000000E-02
  16 333 6.33174039E+02 1.00000000E-02
  16 334 6.53053089E+02 1.00000000E-02
  9 373 5.22084006E+02 1.00000000E-02
  9 374 5.20584582E+02 1.00000000E-02
  16 389 6.35274833E+02 1.00000000E-02
  16 399 6.38431427E+02 1.00000000E-02
  15 492 6.43401852E+02 1.00000000E-02
  10 528 5.25229379E+02 1.00000000E-02
  16 566 6.48724005E+02 1.00000000E-02
  16 568 6.73459936E+02 1.00000000E-02
  10 608 5.40065528E+02 1.00000000E-02
  10 609 5.32135445E+02 1.00000000E-02
  16 630 6.55302276E+02 1.00000000E-02
  16 636 6.58881631E+02 1.00000000E-02
  12 676 5.47818650E+02 1.00000000E-02
  15 694 6.61093538E+02 1.00000000E-02
  16 700 6.65318019E+02 1.00000000E-02
  10 744 5.46114680E+02 1.00000000E-02
  12 745 5.54385651E+02 1.00000000E-02
  16 766 6.69688785E+02 1.00000000E-02
  12 814 5.52506611E+02 1.00000000E-02
  16 834 6.74681340E+02 1.00000000E-02
  16 839 6.78409279E+02 1.00000000E-02
  16 840 6.95071031E+02 1.00000000E-02
  13 886 5.64808635E+02 1.00000000E-02
  12 887 5.58933429E+02 1.00000000E-02
  16 919 6.79386344E+02 1.00000000E-02
  17 927 6.83020586E+02 1.00000000E-02
  14 979 5.73032782E+02 1.00000000E-02
  16 1004 6.87301508E+02 1.00000000E-02
  13 1055 5.71231090E+02 1.00000000E-02
  15 1056 5.80900454E+02 1.00000000E-02
  16 1100 6.91252044E+02 1.00000000E-02
  17 1111 7.12631009E+02 1.00000000E-02
  14 1164 5.79071566E+02 1.00000000E-02
  16 1204 6.96214774E+02 1.00000000E-02
  17 1243 6.99719376E+02 1.00000000E-02
  13 1293 5.93150704E+02 1.00000000E-02
  14 1294 5.86570472E+02 1.00000000E-02
  17 1404 7.00990201E+02 1.00000000E-02
  17 1439 7.04845264E+02 1.00000000E-02
  13 1490 6.00889804E+02 1.00000000E-02
  17 1629 7.09143148E+02 1.00000000E-02
  13 1703 5.99524484E+02 1.00000000E-02
  14 1704 6.08022736E+02 1.00000000E-02
  17 1785 7.13903554E+02 1.00000000E-02
  17 1852 7.17438694E+02 1.00000000E-02
  16 1853 7.34432796E+02 1.00000000E-02
  14 1906 6.06388578E+02 1.00000000E-02
  16 2026 7.18334033E+02 1.00000000E-02
  16 2056 7.22194386E+02 1.00000000E-02
  15 2111 6.18008081E+02 1.00000000E-02
  14 2112 6.12573829E+02 1.00000000E-02
  16 2270 7.26607539E+02 1.00000000E-02
  16 2320 6.24355559E+02 1.00000000E-02
  15 2482 7.30678153E+02 1.00000000E-02
  15 2507 7.52092488E+02 1.00000000E-02
  15 2560 6.23030820E+02 1.00000000E-02
  17 2561 6.30519851E+02 1.00000000E-02
  15 2694 7.35420561E+02 1.00000000E-02
  16 2734 7.38845950E+02 1.00000000E-02
  16 2787 6.29068878E+02 1.00000000E-02
  15 2918 7.39821069E+02 1.00000000E-02
  15 2958 7.43711393E+02 1.00000000E-02
  18 3026 6.38306983E+02 1.00000000E-02
  17 3027 6.34521391E+02 1.00000000E-02
  15 3166 7.48132280E+02 1.00000000E-02
  18 3252 6.42051028E+02 1.00000000E-02
  15 3379 7.53515239E+02 1.00000000E-02
  15 3426 7.57616378E+02 1.00000000E-02
  18 3488 6.42880417E+02 1.00000000E-02
  18 3489 6.45472634E+02 1.00000000E-02
  14 3623 7.58770015E+02 1.00000000E-02
  15 3644 7.64691202E+02 1.00000000E-02
  15 3645 7.63537565E+02 1.00000000E-02
  18 3711 6.49660419E+02 1.00000000E-02
  18 3712 6.46117715E+02 1.00000000E-02
  18 3936 6.51701943E+02 1.00000000E-02
  18 3937 6.55987157E+02 1.00000000E-02
  15 4054 7.60463272E+02 1.00000000E-02
  15 4071 7.63953337E+02 1.00000000E-02
  18 4127 6.59852640E+02 1.00000000E-02
  16 4243 7.56494702E+02 1.00000000E-02
  16 4260 7.60444364E+02 1.00000000E-02
  13 4298 7.46859135E+02 1.00000000E-02
  18 4350 6.59324625E+02 1.00000000E-02
  18 4353 6.62961031E+02 1.00000000E-02
  15 4418 7.52331887E+02 1.00000000E-02
  15 4423 7.57091134E+02 1.00000000E-02
  17 4524 6.62837061E+02 1.00000000E-02
  18 4527 6.66553867E+02 1.00000000E-02
  14 4623 7.53244426E+02 1.00000000E-02
  17 4719 6.67134649E+02 1.00000000E-02
  17 4722 6.70900201E+02 1.00000000E-02
  13 4815 7.48330819E+02 1.00000000E-02
  16 4875 6.72419270E+02 1.00000000E-02
  16 4877 6.76765604E+02 1.00000000E-02
  13 4938 7.42174362E+02 1.00000000E-02
  16 5023 6.81098424E+02 1.00000000E-02
  13 5070 7.37707843E+02 1.00000000E-02
  13 5075 7.41454862E+02 1.00000000E-02
  17 5138 6.81244949E+02 1.00000000E-02
  17 5140 6.84699628E+02 1.00000000E-02
  12 5220 7.36779399E+02 1.00000000E-02
  17 5279 6.84481474E+02 1.00000000E-02
  16 5280 6.87840019E+02 1.00000000E-02
  11 5398 7.26738061E+02 1.00000000E-02
  16 5448 6.87358659E+02 1.00000000E-02
  16 5450 6.90333350E+02 1.00000000E-02
  8 5479 7.17260182E+02 1.00000000E-02
  10 5483 7.21587462E+02 1.00000000E-02
  3 5485 7.18301609E+02 1.00000000E-02
  14 5489 7.16000500E+02 1.00000000E-02
  1 5501 7.15548632E+02 1.00000000E-02
  10 5531 7.19369819E+02 1.00000000E-02
  16 5616 6.90619696E+02 1.00000000E-02
  16 5618 6.93521545E+02 1.00000000E-02
  10 5663 7.11530071E+02 1.00000000E-02
  16 5752 6.97980669E+02 1.00000000E-02
  12 5803 7.11242223E+02 1.00000000E-02
  12 5854 7.18124863E+02 1.00000000E-02
  15 5932 6.97845057E+02 1.00000000E-02
  15 5934 7.01980319E+02 1.00000000E-02
  13 6027 7.15323049E+02 1.00000000E-02
  15 6093 7.02304181E+02 1.00000000E-02
  15 6097 7.06425882E+02 1.00000000E-02
  14 6198 7.15379341E+02 1.00000000E-02
  15 6297 7.06763305E+02 1.00000000E-02
  15 6299 7.10159333E+02 1.00000000E-02
  14 6403 7.10432667E+02 1.00000000E-02
  16 6473 7.10397355E+02 1.00000000E-02
  17 6475 7.12525595E+02 1.00000000E-02
  13 6557 7.05096961E+02 1.00000000E-02
  13 6587 7.11394531E+02 1.00000000E-02
  17 6627 7.11381617E+02 1.00000000E-02
  17 6629 7.15017416E+02 1.00000000E-02
  11 6738 7.01970775E+02 1.00000000E-02
  12 6739 7.06631820E+02 1.00000000E-02
  18 6781 7.13873437E+02 1.00000000E-02
  18 6784 7.17145656E+02 1.00000000E-02
  10 6804 7.02857981E+02 1.00000000E-02
  8 6807 6.99621841E+02 1.00000000E-02
  4 6812 6.99592382E+02 1.00000000E-02
  4 6828 6.95270454E+02 1.00000000E-02
  2 6842 6.97370854E+02 1.00000000E-02
  2 6847 6.96912745E+02 1.00000000E-02
  7 6855 6.99927163E+02 1.00000000E-02
  8 6857 7.01685870E+02 1.00000000E-02
  18 6885 7.16365257E+02 1.00000000E-02
  18 6887 7.20053066E+02 1.00000000E-02
  1 6888 6.98168455E+02 1.00000000E-02
  3 6894 6.98671453E+02 1.00000000E-02
  8 6906 7.01182873E+02 1.00000000E-02
  10 6920 7.03031966E+02 1.00000000E-02
  10 6930 7.03535324E+02 1.00000000E-02
  10 6931 7.04743241E+02 1.00000000E-02
  11 6932 7.05146761E+02 1.00000000E-02
  12 6934 7.07069936E+02 1.00000000E-02
  9 6935 7.06264448E+02 1.00000000E-02
  18 6962 7.20011096E+02 1.00000000E-02
  17 6964 7.23408734E+02 1.00000000E-02
  10 6975 7.07427945E+02 1.00000000E-02
  14 6977 7.31840896E+02 1.00000000E-02
  12 6978 7.10690003E+02 1.00000000E-02
  13 6979 7.12375964E+02 1.00000000E-02
  17 7012 7.24229319E+02 1.00000000E-02
  16 7014 7.30690125E+02 1.00000000E-02
  12 7015 7.15896727E+02 1.00000000E-02
  15 7047 7.26329049E+02 1.00000000E-02
  16 7049 7.27584986E+02 1.00000000E-02
  13 7050 7.26072441E+02 1.00000000E-02
  15 7081 7.29546043E+02 1.00000000E-02
  15 7083 7.33855800E+02 1.00000000E-02
  15 7085 7.32805195E+02 1.00000000E-02
  15 7113 7.33312077E+02 1.00000000E-02
  15 7115 7.36673261E+02 1.00000000E-02
  15 7116 7.82182842E+02 1.00000000E-02
  15 7117 7.37606988E+02 1.00000000E-02
  15 7119 7.37762525E+02 1.00000000E-02
  15 7145 7.36222287E+02 1.00000000E-02
  14 7147 7.39199701E+02 1.00000000E-02
  15 7148 7.57859184E+02 1.00000000E-02
  16 7149 7.43501600E+02 1.00000000E-02
  16 7151 7.42227389E+02 1.00000000E-02
  14 7175 7.39516268E+02 1.00000000E-02
  14 7177 7.49375583E+02 1.00000000E-02
  16 7178 7.48815956E+02 1.00000000E-02
  14 7200 7.44197133E+02 1.00000000E-02
  14 7202 7.43765155E+02 1.00000000E-02
  15 7203 7.52959637E+02 1.00000000E-02
  13 7224 7.49007110E+02 1.00000000E-02
  13 7226 7.54038975E+02 1.00000000E-02
  15 7228 7.58114205E+02 1.00000000E-02
  12 7246 7.52151649E+02 1.00000000E-02
  12 7248 7.56938872E+02 1.00000000E-02
  15 7249 7.64791148E+02 1.00000000E-02
  14 7251 7.64825445E+02 1.00000000E-02
  13 7267 7.56268755E+02 1.00000000E-02
  13 7269 7.62181456E+02 1.00000000E-02
  15 7270 7.71502388E+02 1.00000000E-02
  13 7286 7.64167990E+02 1.00000000E-02
  14 7288 7.74722568E+02 1.00000000E-02
  14 7289 7.77452624E+02 1.00000000E-02
  14 7301 7.70244119E+02 1.00000000E-02
  13 7303 7.70260153E+02 1.00000000E-02
  15 7305 7.82743059E+02 1.00000000E-02
  15 7315 7.74706534E+02 1.00000000E-02
  15 7317 7.78783314E+02 1.00000000E-02
  15 7318 7.87464241E+02 1.00000000E-02
  15 7320 7.88028976E+02 1.00000000E-02
  15 7328 7.79707482E+02 1.00000000E-02
  15 7330 7.84292990E+02 1.00000000E-02
  15 7331 8.07872706E+02 1.00000000E-02
  15 7332 7.93269714E+02 1.00000000E-02
  14 7334 7.93131033E+02 1.00000000E-02
  15 7340 7.85175225E+02 1.00000000E-02
  14 7342 7.89255892E+02 1.00000000E-02
  14 7343 7.98951901E+02 1.00000000E-02
  14 7349 7.91062996E+02 1.00000000E-02
  14 7351 8.01418272E+02 1.00000000E-02
  14 7352 8.03235056E+02 1.00000000E-02
  14 7353 7.96180579E+02 1.00000000E-02
  14 7356 7.95898578E+02 1.00000000E-02
  14 7357 8.01861390E+02 1.00000000E-02
  15 7358 8.07999041E+02 1.00000000E-02
  15 7359 8.07555923E+02 1.00000000E-02
  15 7360 8.06587663E+02 1.00000000E-02
  15 7361 8.12749078E+02 1.00000000E-02
  15 7362 8.11908991E+02 1.00000000E-02
END period  1

