# File generated by Flopy version 3.9.3 on 09/05/2025 at 16:06:09.
BEGIN options
  TIME_UNITS  seconds
END options

BEGIN dimensions
  NPER  1
END dimensions

BEGIN perioddata
  2.52288000E+09  10       1.00000000
END perioddata

