# File generated by Flopy version 3.9.3 on 09/05/2025 at 16:06:11.
BEGIN options
END options

BEGIN dimensions
  MAXBOUND  533
END dimensions

BEGIN period  1
  1 280 521 1.00000000E-03
  1 290 518 1.00000000E-03
  1 317 519 1.00000000E-03
  1 323 517 1.00000000E-03
  1 350 524 1.00000000E-03
  1 351 527 1.00000000E-03
  1 359 520 1.00000000E-03
  1 382 529 1.00000000E-03
  1 385 529 1.00000000E-03
  1 429 528 1.00000000E-03
  1 439 530 1.00000000E-03
  1 442 531 1.00000000E-03
  1 447 529 1.00000000E-03
  1 448 528 1.00000000E-03
  1 449 529 1.00000000E-03
  1 450 525 1.00000000E-03
  1 452 528 1.00000000E-03
  1 455 528 1.00000000E-03
  1 457 534 1.00000000E-03
  1 461 526 1.00000000E-03
  1 466 536 1.00000000E-03
  1 479 535 1.00000000E-03
  1 483 535 1.00000000E-03
  1 518 530 1.00000000E-03
  1 519 530 1.00000000E-03
  1 537 531 1.00000000E-03
  1 540 529 1.00000000E-03
  1 541 529 1.00000000E-03
  1 543 529 1.00000000E-03
  1 544 532 1.00000000E-03
  1 547 528 1.00000000E-03
  1 596 535 1.00000000E-03
  1 601 532 1.00000000E-03
  1 617 541 1.00000000E-03
  1 618 540 1.00000000E-03
  1 619 540 1.00000000E-03
  1 634 539 1.00000000E-03
  1 642 537 1.00000000E-03
  1 656 537 1.00000000E-03
  1 664 538 1.00000000E-03
  1 691 537 1.00000000E-03
  1 706 538 1.00000000E-03
  1 716 536 1.00000000E-03
  1 734 538 1.00000000E-03
  1 740 538 1.00000000E-03
  1 752 535 1.00000000E-03
  1 788 534 1.00000000E-03
  1 801 533 1.00000000E-03
  1 803 534 1.00000000E-03
  1 828 534 1.00000000E-03
  1 835 534 1.00000000E-03
  1 854 549 1.00000000E-03
  1 864 544 1.00000000E-03
  1 865 538 1.00000000E-03
  1 895 557 1.00000000E-03
  1 898 554 1.00000000E-03
  1 902 560 1.00000000E-03
  1 909 562 1.00000000E-03
  1 917 564 1.00000000E-03
  1 925 568 1.00000000E-03
  1 982 570 1.00000000E-03
  1 986 568 1.00000000E-03
  1 988 565 1.00000000E-03
  1 998 563 1.00000000E-03
  1 1052 563 1.00000000E-03
  1 1057 563 1.00000000E-03
  1 1073 564 1.00000000E-03
  1 1075 562 1.00000000E-03
  1 1081 562 1.00000000E-03
  1 1087 562 1.00000000E-03
  1 1095 561 1.00000000E-03
  1 1106 562 1.00000000E-03
  1 1108 563 1.00000000E-03
  1 1170 564 1.00000000E-03
  1 1173 565 1.00000000E-03
  1 1179 563 1.00000000E-03
  1 1186 559 1.00000000E-03
  1 1193 555 1.00000000E-03
  1 1208 555 1.00000000E-03
  1 1228 555 1.00000000E-03
  1 1235 553 1.00000000E-03
  1 1299 551 1.00000000E-03
  1 1316 549 1.00000000E-03
  1 1326 547 1.00000000E-03
  1 1359 546 1.00000000E-03
  1 1366 547 1.00000000E-03
  1 1398 548 1.00000000E-03
  1 1405 549 1.00000000E-03
  1 1430 551 1.00000000E-03
  1 1432 552 1.00000000E-03
  1 1512 572 1.00000000E-03
  1 1514 584 1.00000000E-03
  1 1517 556 1.00000000E-03
  1 1519 586 1.00000000E-03
  1 1520 573 1.00000000E-03
  1 1521 558 1.00000000E-03
  1 1522 552 1.00000000E-03
  1 1524 554 1.00000000E-03
  1 1533 552 1.00000000E-03
  1 1535 563 1.00000000E-03
  1 1536 581 1.00000000E-03
  1 1542 565 1.00000000E-03
  1 1543 575 1.00000000E-03
  1 1554 578 1.00000000E-03
  1 1556 583 1.00000000E-03
  1 1558 583 1.00000000E-03
  1 1559 563 1.00000000E-03
  1 1560 583 1.00000000E-03
  1 1561 581 1.00000000E-03
  1 1562 577 1.00000000E-03
  1 1563 566 1.00000000E-03
  1 1564 563 1.00000000E-03
  1 1565 562 1.00000000E-03
  1 1566 560 1.00000000E-03
  1 1567 554 1.00000000E-03
  1 1568 553 1.00000000E-03
  1 1570 553 1.00000000E-03
  1 1577 564 1.00000000E-03
  1 1604 564 1.00000000E-03
  1 1607 567 1.00000000E-03
  1 1635 569 1.00000000E-03
  1 1640 574 1.00000000E-03
  1 1717 579 1.00000000E-03
  1 1749 585 1.00000000E-03
  1 1756 584 1.00000000E-03
  1 1757 585 1.00000000E-03
  1 1801 582 1.00000000E-03
  1 1803 580 1.00000000E-03
  1 1839 577 1.00000000E-03
  1 1841 572 1.00000000E-03
  1 1842 575 1.00000000E-03
  1 1934 569 1.00000000E-03
  1 1936 568 1.00000000E-03
  1 1974 567 1.00000000E-03
  1 1977 566 1.00000000E-03
  1 1993 564 1.00000000E-03
  1 2008 559 1.00000000E-03
  1 2009 561 1.00000000E-03
  1 2045 559 1.00000000E-03
  1 2046 558 1.00000000E-03
  1 2134 553 1.00000000E-03
  1 2135 557 1.00000000E-03
  1 2136 555 1.00000000E-03
  1 2137 554 1.00000000E-03
  1 2138 554 1.00000000E-03
  1 2162 551 1.00000000E-03
  1 2169 549 1.00000000E-03
  1 2171 551 1.00000000E-03
  1 2172 548 1.00000000E-03
  1 2173 551 1.00000000E-03
  1 2174 557 1.00000000E-03
  1 2175 557 1.00000000E-03
  1 2176 554 1.00000000E-03
  1 2193 547 1.00000000E-03
  1 2217 548 1.00000000E-03
  1 2226 550 1.00000000E-03
  1 2256 551 1.00000000E-03
  1 2258 558 1.00000000E-03
  1 2315 561 1.00000000E-03
  1 2354 562 1.00000000E-03
  1 2357 562 1.00000000E-03
  1 2401 559 1.00000000E-03
  1 2402 561 1.00000000E-03
  1 2442 558 1.00000000E-03
  1 2443 557 1.00000000E-03
  1 2493 558 1.00000000E-03
  1 2494 562 1.00000000E-03
  1 2496 561 1.00000000E-03
  1 2549 562 1.00000000E-03
  1 2582 566 1.00000000E-03
  1 2584 557 1.00000000E-03
  1 2585 562 1.00000000E-03
  1 2607 553 1.00000000E-03
  1 2611 552 1.00000000E-03
  1 2625 569 1.00000000E-03
  1 2627 563 1.00000000E-03
  1 2628 576 1.00000000E-03
  1 2629 555 1.00000000E-03
  1 2630 555 1.00000000E-03
  1 2631 561 1.00000000E-03
  1 2634 587 1.00000000E-03
  1 2674 601 1.00000000E-03
  1 2675 590 1.00000000E-03
  1 2701 604 1.00000000E-03
  1 2714 615 1.00000000E-03
  1 2717 622 1.00000000E-03
  1 2809 639 1.00000000E-03
  1 2810 625 1.00000000E-03
  1 2840 643 1.00000000E-03
  1 2853 653 1.00000000E-03
  1 2882 661 1.00000000E-03
  1 2893 664 1.00000000E-03
  1 2896 668 1.00000000E-03
  1 2921 670 1.00000000E-03
  1 2922 670 1.00000000E-03
  1 2929 670 1.00000000E-03
  1 3040 670 1.00000000E-03
  1 3059 670 1.00000000E-03
  1 3101 670 1.00000000E-03
  1 3123 670 1.00000000E-03
  1 3156 670 1.00000000E-03
  1 3167 670 1.00000000E-03
  1 3267 670 1.00000000E-03
  1 3299 670 1.00000000E-03
  1 3318 670 1.00000000E-03
  1 3319 670 1.00000000E-03
  1 3394 670 1.00000000E-03
  1 3395 670 1.00000000E-03
  1 3424 670 1.00000000E-03
  1 3510 670 1.00000000E-03
  1 3512 670 1.00000000E-03
  1 3514 670 1.00000000E-03
  1 3515 670 1.00000000E-03
  1 3517 670 1.00000000E-03
  1 3518 670 1.00000000E-03
  1 3519 670 1.00000000E-03
  1 3520 670 1.00000000E-03
  1 3521 670 1.00000000E-03
  1 3522 670 1.00000000E-03
  1 3523 670 1.00000000E-03
  1 3539 670 1.00000000E-03
  1 3544 670 1.00000000E-03
  1 3545 670 1.00000000E-03
  1 3558 670 1.00000000E-03
  1 3560 670 1.00000000E-03
  1 3561 670 1.00000000E-03
  1 3563 670 1.00000000E-03
  1 3565 670 1.00000000E-03
  1 3594 670 1.00000000E-03
  1 3627 670 1.00000000E-03
  1 3721 670 1.00000000E-03
  1 3723 670 1.00000000E-03
  1 3778 670 1.00000000E-03
  1 3831 670 1.00000000E-03
  1 3845 670 1.00000000E-03
  1 3949 670 1.00000000E-03
  1 3950 670 1.00000000E-03
  1 3954 670 1.00000000E-03
  1 3955 670 1.00000000E-03
  1 3999 670 1.00000000E-03
  1 4011 670 1.00000000E-03
  1 4013 670 1.00000000E-03
  1 4014 670 1.00000000E-03
  1 4016 670 1.00000000E-03
  1 4017 670 1.00000000E-03
  1 4019 670 1.00000000E-03
  1 4020 670 1.00000000E-03
  1 4021 670 1.00000000E-03
  1 4046 670 1.00000000E-03
  1 4133 670 1.00000000E-03
  1 4134 670 1.00000000E-03
  1 4140 670 1.00000000E-03
  1 4141 670 1.00000000E-03
  1 4143 670 1.00000000E-03
  1 4144 670 1.00000000E-03
  1 4147 670 1.00000000E-03
  1 4169 670 1.00000000E-03
  1 4178 670 1.00000000E-03
  1 4189 670 1.00000000E-03
  1 4197 670 1.00000000E-03
  1 4200 670 1.00000000E-03
  1 4201 670 1.00000000E-03
  1 4203 670 1.00000000E-03
  1 4204 670 1.00000000E-03
  1 4251 670 1.00000000E-03
  1 4270 670 1.00000000E-03
  1 4379 670 1.00000000E-03
  1 4408 670 1.00000000E-03
  1 4424 670 1.00000000E-03
  1 4541 670 1.00000000E-03
  1 4542 670 1.00000000E-03
  1 4588 670 1.00000000E-03
  1 4590 670 1.00000000E-03
  1 4638 670 1.00000000E-03
  1 4640 670 1.00000000E-03
  1 4669 670 1.00000000E-03
  1 4670 670 1.00000000E-03
  1 4743 670 1.00000000E-03
  1 4795 670 1.00000000E-03
  1 4797 670 1.00000000E-03
  1 4884 670 1.00000000E-03
  1 4885 670 1.00000000E-03
  1 4919 670 1.00000000E-03
  1 4920 670 1.00000000E-03
  1 4944 670 1.00000000E-03
  1 4945 670 1.00000000E-03
  1 4950 670 1.00000000E-03
  1 4957 773 1.00000000E-03
  1 4959 670 1.00000000E-03
  1 5020 670 1.00000000E-03
  1 5026 670 1.00000000E-03
  1 5028 670 1.00000000E-03
  1 5030 670 1.00000000E-03
  1 5031 670 1.00000000E-03
  1 5053 670 1.00000000E-03
  1 5142 670 1.00000000E-03
  1 5143 670 1.00000000E-03
  1 5177 670 1.00000000E-03
  1 5212 670 1.00000000E-03
  1 5214 670 1.00000000E-03
  1 5296 723 1.00000000E-03
  1 5297 710 1.00000000E-03
  1 5299 706 1.00000000E-03
  1 5301 706 1.00000000E-03
  1 5302 705 1.00000000E-03
  1 5303 704 1.00000000E-03
  1 5315 670 1.00000000E-03
  1 5316 670 1.00000000E-03
  1 5317 670 1.00000000E-03
  1 5320 704 1.00000000E-03
  1 5322 706 1.00000000E-03
  1 5327 705 1.00000000E-03
  1 5329 728 1.00000000E-03
  1 5343 721 1.00000000E-03
  1 5359 701 1.00000000E-03
  1 5364 670 1.00000000E-03
  1 5366 670 1.00000000E-03
  1 5367 670 1.00000000E-03
  1 5371 720 1.00000000E-03
  1 5387 701 1.00000000E-03
  1 5399 713 1.00000000E-03
  1 5402 702 1.00000000E-03
  1 5458 670 1.00000000E-03
  1 5460 670 1.00000000E-03
  1 5462 711 1.00000000E-03
  1 5471 706 1.00000000E-03
  1 5476 670 1.00000000E-03
  1 5482 705 1.00000000E-03
  1 5485 723 1.00000000E-03
  1 5488 708 1.00000000E-03
  1 5490 756 1.00000000E-03
  1 5495 710 1.00000000E-03
  1 5501 716 1.00000000E-03
  1 5503 670 1.00000000E-03
  1 5525 708 1.00000000E-03
  1 5533 713 1.00000000E-03
  1 5550 720 1.00000000E-03
  1 5555 670 1.00000000E-03
  1 5557 670 1.00000000E-03
  1 5576 716 1.00000000E-03
  1 5592 670 1.00000000E-03
  1 5594 670 1.00000000E-03
  1 5626 710 1.00000000E-03
  1 5628 711 1.00000000E-03
  1 5630 714 1.00000000E-03
  1 5631 715 1.00000000E-03
  1 5634 713 1.00000000E-03
  1 5638 670 1.00000000E-03
  1 5652 715 1.00000000E-03
  1 5659 715 1.00000000E-03
  1 5660 670 1.00000000E-03
  1 5674 670 1.00000000E-03
  1 5676 670 1.00000000E-03
  1 5685 710 1.00000000E-03
  1 5702 706 1.00000000E-03
  1 5759 670 1.00000000E-03
  1 5761 670 1.00000000E-03
  1 5763 670 1.00000000E-03
  1 5766 700 1.00000000E-03
  1 5776 695 1.00000000E-03
  1 5777 689 1.00000000E-03
  1 5779 699 1.00000000E-03
  1 5782 685 1.00000000E-03
  1 5783 682 1.00000000E-03
  1 5784 683 1.00000000E-03
  1 5785 686 1.00000000E-03
  1 5791 684 1.00000000E-03
  1 5797 670 1.00000000E-03
  1 5799 681 1.00000000E-03
  1 5801 685 1.00000000E-03
  1 5806 681 1.00000000E-03
  1 5810 670 1.00000000E-03
  1 5816 711 1.00000000E-03
  1 5834 680 1.00000000E-03
  1 5835 711 1.00000000E-03
  1 5837 680 1.00000000E-03
  1 5838 671 1.00000000E-03
  1 5855 665 1.00000000E-03
  1 5860 716 1.00000000E-03
  1 5865 683 1.00000000E-03
  1 5866 670 1.00000000E-03
  1 5870 670 1.00000000E-03
  1 5876 677 1.00000000E-03
  1 5879 678 1.00000000E-03
  1 5880 661 1.00000000E-03
  1 5886 677 1.00000000E-03
  1 5888 721 1.00000000E-03
  1 5890 678 1.00000000E-03
  1 5891 670 1.00000000E-03
  1 5901 679 1.00000000E-03
  1 5902 691 1.00000000E-03
  1 5909 670 1.00000000E-03
  1 5949 720 1.00000000E-03
  1 5953 661 1.00000000E-03
  1 5961 670 1.00000000E-03
  1 5970 725 1.00000000E-03
  1 5972 670 1.00000000E-03
  1 5973 662 1.00000000E-03
  1 5974 677 1.00000000E-03
  1 5989 685 1.00000000E-03
  1 5990 679 1.00000000E-03
  1 5991 677 1.00000000E-03
  1 5992 677 1.00000000E-03
  1 5996 663 1.00000000E-03
  1 6000 681 1.00000000E-03
  1 6006 662 1.00000000E-03
  1 6007 721 1.00000000E-03
  1 6011 670 1.00000000E-03
  1 6013 670 1.00000000E-03
  1 6020 677 1.00000000E-03
  1 6030 671 1.00000000E-03
  1 6035 714 1.00000000E-03
  1 6041 661 1.00000000E-03
  1 6049 670 1.00000000E-03
  1 6060 696 1.00000000E-03
  1 6066 662 1.00000000E-03
  1 6067 670 1.00000000E-03
  1 6101 670 1.00000000E-03
  1 6119 670 1.00000000E-03
  1 6123 663 1.00000000E-03
  1 6127 691 1.00000000E-03
  1 6128 683 1.00000000E-03
  1 6130 682 1.00000000E-03
  1 6131 684 1.00000000E-03
  1 6133 688 1.00000000E-03
  1 6134 709 1.00000000E-03
  1 6138 728 1.00000000E-03
  1 6141 670 1.00000000E-03
  1 6145 665 1.00000000E-03
  1 6150 718 1.00000000E-03
  1 6152 670 1.00000000E-03
  1 6160 670 1.00000000E-03
  1 6163 670 1.00000000E-03
  1 6164 670 1.00000000E-03
  1 6176 697 1.00000000E-03
  1 6180 705 1.00000000E-03
  1 6181 727 1.00000000E-03
  1 6182 727 1.00000000E-03
  1 6183 724 1.00000000E-03
  1 6193 664 1.00000000E-03
  1 6201 721 1.00000000E-03
  1 6210 663 1.00000000E-03
  1 6216 688 1.00000000E-03
  1 6223 670 1.00000000E-03
  1 6227 670 1.00000000E-03
  1 6233 670 1.00000000E-03
  1 6234 670 1.00000000E-03
  1 6237 670 1.00000000E-03
  1 6242 716 1.00000000E-03
  1 6248 662 1.00000000E-03
  1 6252 678 1.00000000E-03
  1 6273 670 1.00000000E-03
  1 6302 660 1.00000000E-03
  1 6303 704 1.00000000E-03
  1 6308 670 1.00000000E-03
  1 6313 666 1.00000000E-03
  1 6314 670 1.00000000E-03
  1 6315 689 1.00000000E-03
  1 6323 662 1.00000000E-03
  1 6324 680 1.00000000E-03
  1 6327 674 1.00000000E-03
  1 6331 670 1.00000000E-03
  1 6332 670 1.00000000E-03
  1 6333 670 1.00000000E-03
  1 6346 670 1.00000000E-03
  1 6347 667 1.00000000E-03
  1 6352 679 1.00000000E-03
  1 6363 671 1.00000000E-03
  1 6369 670 1.00000000E-03
  1 6377 670 1.00000000E-03
  1 6384 670 1.00000000E-03
  1 6390 670 1.00000000E-03
  1 6413 670 1.00000000E-03
  1 6417 675 1.00000000E-03
  1 6421 676 1.00000000E-03
  1 6435 675 1.00000000E-03
  1 6438 703 1.00000000E-03
  1 6443 684 1.00000000E-03
  1 6447 670 1.00000000E-03
  1 6483 670 1.00000000E-03
  1 6501 678 1.00000000E-03
  1 6503 691 1.00000000E-03
  1 6510 687 1.00000000E-03
  1 6516 692 1.00000000E-03
  1 6517 699 1.00000000E-03
  1 6523 695 1.00000000E-03
  1 6532 670 1.00000000E-03
  1 6535 670 1.00000000E-03
  1 6544 698 1.00000000E-03
  1 6545 686 1.00000000E-03
  1 6551 715 1.00000000E-03
  1 6562 696 1.00000000E-03
  1 6573 682 1.00000000E-03
  1 6576 670 1.00000000E-03
  1 6577 670 1.00000000E-03
  1 6588 695 1.00000000E-03
  1 6590 670 1.00000000E-03
  1 6596 675 1.00000000E-03
  1 6631 687 1.00000000E-03
  1 6651 688 1.00000000E-03
  1 6654 710 1.00000000E-03
  1 6660 670 1.00000000E-03
  1 6662 670 1.00000000E-03
  1 6663 670 1.00000000E-03
  1 6664 670 1.00000000E-03
  1 6665 670 1.00000000E-03
  1 6666 670 1.00000000E-03
  1 6668 670 1.00000000E-03
  1 6676 692 1.00000000E-03
  1 6680 701 1.00000000E-03
  1 6681 670 1.00000000E-03
  1 6686 693 1.00000000E-03
  1 6689 670 1.00000000E-03
  1 6690 670 1.00000000E-03
  1 6692 715 1.00000000E-03
  1 6698 670 1.00000000E-03
  1 6728 713 1.00000000E-03
  1 6735 713 1.00000000E-03
  1 6747 716 1.00000000E-03
  1 6796 711 1.00000000E-03
  1 6803 707 1.00000000E-03
  1 6828 702 1.00000000E-03
  1 6836 700 1.00000000E-03
  1 6842 700 1.00000000E-03
  1 6889 700 1.00000000E-03
  1 6895 702 1.00000000E-03
  1 6908 704 1.00000000E-03
  1 6916 706 1.00000000E-03
  1 6923 708 1.00000000E-03
  1 6928 708 1.00000000E-03
  1 6965 717 1.00000000E-03
  1 6971 718 1.00000000E-03
  1 6973 706 1.00000000E-03
END period  1

