# File generated by Flopy version 3.9.3 on 09/05/2025 at 16:06:09.
BEGIN options
  CONTINUE
END options

BEGIN timing
  TDIS6  mf6Model.tdis
END timing

BEGIN models
  gwf6  mf6Model.nam  mf6model
  gwt6  gwtModel.nam  gwtModel
END models

BEGIN exchanges
END exchanges

BEGIN solutiongroup  1
  ims6  mf6Model_0.ims  mf6model  gwtModel
END solutiongroup  1

