# File generated by Flopy version 3.9.2 on 04/03/2025 at 07:37:05.
BEGIN options
END options

BEGIN dimensions
  MAXBOUND  807
END dimensions

BEGIN period  1
  1 1 3868 1.00000000E-02
  1 4 3793 1.00000000E-02
  1 19 3724 1.00000000E-02
  1 21 3714 1.00000000E-02
  1 34 3873 1.00000000E-02
  1 35 3919 1.00000000E-02
  1 36 3906 1.00000000E-02
  1 41 3875 1.00000000E-02
  1 52 3708 1.00000000E-02
  1 54 3835 1.00000000E-02
  1 55 3873 1.00000000E-02
  1 58 3872 1.00000000E-02
  1 59 3850 1.00000000E-02
  1 61 3837 1.00000000E-02
  1 62 3790 1.00000000E-02
  1 65 3863 1.00000000E-02
  1 71 3897 1.00000000E-02
  1 72 3863 1.00000000E-02
  1 74 3863 1.00000000E-02
  1 75 3837 1.00000000E-02
  1 76 3786 1.00000000E-02
  1 81 3842 1.00000000E-02
  1 82 3858 1.00000000E-02
  1 88 3701 1.00000000E-02
  1 92 3855 1.00000000E-02
  1 103 3789 1.00000000E-02
  1 104 3842 1.00000000E-02
  1 107 3837 1.00000000E-02
  1 108 3831 1.00000000E-02
  1 111 3707 1.00000000E-02
  1 122 3789 1.00000000E-02
  1 137 3703 1.00000000E-02
  1 139 3661 1.00000000E-02
  1 141 3824 1.00000000E-02
  1 143 3789 1.00000000E-02
  1 149 3693 1.00000000E-02
  1 159 3783 1.00000000E-02
  1 164 3815 1.00000000E-02
  1 182 3645 1.00000000E-02
  1 186 3643 1.00000000E-02
  1 193 3818 1.00000000E-02
  1 203 3778 1.00000000E-02
  1 207 3650 1.00000000E-02
  1 211 3818 1.00000000E-02
  1 213 3664 1.00000000E-02
  1 220 3678 1.00000000E-02
  1 223 3769 1.00000000E-02
  1 227 3646 1.00000000E-02
  1 234 3666 1.00000000E-02
  1 237 3813 1.00000000E-02
  1 248 3626 1.00000000E-02
  1 252 3637 1.00000000E-02
  1 255 3626 1.00000000E-02
  1 257 3814 1.00000000E-02
  1 260 3765 1.00000000E-02
  1 263 3665 1.00000000E-02
  1 264 3627 1.00000000E-02
  1 265 3662 1.00000000E-02
  1 266 3709 1.00000000E-02
  1 268 3837 1.00000000E-02
  1 271 3680 1.00000000E-02
  1 272 3722 1.00000000E-02
  1 277 3634 1.00000000E-02
  1 281 3733 1.00000000E-02
  1 282 3760 1.00000000E-02
  1 293 3662 1.00000000E-02
  1 294 3810 1.00000000E-02
  1 295 3816 1.00000000E-02
  1 303 3638 1.00000000E-02
  1 304 3740 1.00000000E-02
  1 308 3837 1.00000000E-02
  1 313 3744 1.00000000E-02
  1 315 3662 1.00000000E-02
  1 316 3653 1.00000000E-02
  1 319 3644 1.00000000E-02
  1 338 3816 1.00000000E-02
  1 347 3757 1.00000000E-02
  1 351 3845 1.00000000E-02
  1 358 3817 1.00000000E-02
  1 361 3728 1.00000000E-02
  1 374 3645 1.00000000E-02
  1 376 3666 1.00000000E-02
  1 380 3759 1.00000000E-02
  1 383 3807 1.00000000E-02
  1 385 3830 1.00000000E-02
  1 386 3753 1.00000000E-02
  1 387 3663 1.00000000E-02
  1 388 3845 1.00000000E-02
  1 390 3853 1.00000000E-02
  1 395 3721 1.00000000E-02
  1 397 3847 1.00000000E-02
  1 400 3683 1.00000000E-02
  1 408 3717 1.00000000E-02
  1 409 3679 1.00000000E-02
  1 410 3760 1.00000000E-02
  1 411 3794 1.00000000E-02
  1 416 3646 1.00000000E-02
  1 423 3866 1.00000000E-02
  1 424 3724 1.00000000E-02
  1 431 3862 1.00000000E-02
  1 433 3791 1.00000000E-02
  1 440 3705 1.00000000E-02
  1 442 3769 1.00000000E-02
  1 446 3769 1.00000000E-02
  1 449 3730 1.00000000E-02
  1 451 3765 1.00000000E-02
  1 457 3862 1.00000000E-02
  1 464 3856 1.00000000E-02
  1 465 3762 1.00000000E-02
  1 466 3766 1.00000000E-02
  1 468 3643 1.00000000E-02
  1 472 3690 1.00000000E-02
  1 476 3777 1.00000000E-02
  1 477 3759 1.00000000E-02
  1 480 3740 1.00000000E-02
  1 482 3690 1.00000000E-02
  1 484 3743 1.00000000E-02
  1 485 3880 1.00000000E-02
  1 489 3738 1.00000000E-02
  1 493 3759 1.00000000E-02
  1 500 3875 1.00000000E-02
  1 501 3928 1.00000000E-02
  1 502 3770 1.00000000E-02
  1 506 3647 1.00000000E-02
  1 508 3781 1.00000000E-02
  1 509 3756 1.00000000E-02
  1 511 3892 1.00000000E-02
  1 513 3710 1.00000000E-02
  1 518 3988 1.00000000E-02
  1 521 3878 1.00000000E-02
  1 527 3716 1.00000000E-02
  1 531 3771 1.00000000E-02
  1 544 3766 1.00000000E-02
  1 551 3894 1.00000000E-02
  1 559 3891 1.00000000E-02
  1 561 3650 1.00000000E-02
  1 564 3786 1.00000000E-02
  1 573 3787 1.00000000E-02
  1 574 3790 1.00000000E-02
  1 580 3908 1.00000000E-02
  1 585 3726 1.00000000E-02
  1 589 3783 1.00000000E-02
  1 596 3908 1.00000000E-02
  1 598 3936 1.00000000E-02
  1 603 3790 1.00000000E-02
  1 617 3915 1.00000000E-02
  1 619 3922 1.00000000E-02
  1 620 3923 1.00000000E-02
  1 621 3923 1.00000000E-02
  1 623 3944 1.00000000E-02
  1 626 3652 1.00000000E-02
  1 628 3734 1.00000000E-02
  1 638 3930 1.00000000E-02
  1 640 3790 1.00000000E-02
  1 641 3922 1.00000000E-02
  1 642 3939 1.00000000E-02
  1 643 3808 1.00000000E-02
  1 650 3932 1.00000000E-02
  1 656 3992 1.00000000E-02
  1 659 3955 1.00000000E-02
  1 662 3991 1.00000000E-02
  1 663 4000 1.00000000E-02
  1 666 3652 1.00000000E-02
  1 669 3931 1.00000000E-02
  1 670 3987 1.00000000E-02
  1 672 3931 1.00000000E-02
  1 675 4009 1.00000000E-02
  1 681 3955 1.00000000E-02
  1 682 3932 1.00000000E-02
  1 687 4010 1.00000000E-02
  1 694 3955 1.00000000E-02
  1 696 3974 1.00000000E-02
  1 699 3972 1.00000000E-02
  1 702 4011 1.00000000E-02
  1 703 4017 1.00000000E-02
  1 704 4017 1.00000000E-02
  1 707 3959 1.00000000E-02
  1 709 3821 1.00000000E-02
  1 710 4020 1.00000000E-02
  1 714 3964 1.00000000E-02
  1 717 3971 1.00000000E-02
  1 725 3654 1.00000000E-02
  1 726 3661 1.00000000E-02
  1 743 4019 1.00000000E-02
  1 752 4020 1.00000000E-02
  1 774 3821 1.00000000E-02
  1 775 3757 1.00000000E-02
  1 777 3662 1.00000000E-02
  1 780 3753 1.00000000E-02
  1 791 3819 1.00000000E-02
  1 800 3828 1.00000000E-02
  1 809 3828 1.00000000E-02
  1 815 3764 1.00000000E-02
  1 834 3840 1.00000000E-02
  1 840 3836 1.00000000E-02
  1 843 3836 1.00000000E-02
  1 844 3836 1.00000000E-02
  1 856 3668 1.00000000E-02
  1 862 3771 1.00000000E-02
  1 870 3845 1.00000000E-02
  1 874 3837 1.00000000E-02
  1 877 3668 1.00000000E-02
  1 895 3839 1.00000000E-02
  1 903 3850 1.00000000E-02
  1 904 3781 1.00000000E-02
  1 908 3850 1.00000000E-02
  1 909 3830 1.00000000E-02
  1 920 3671 1.00000000E-02
  1 929 3842 1.00000000E-02
  1 934 3678 1.00000000E-02
  1 935 3780 1.00000000E-02
  1 937 3833 1.00000000E-02
  1 939 3828 1.00000000E-02
  1 944 3830 1.00000000E-02
  1 954 3853 1.00000000E-02
  1 955 3840 1.00000000E-02
  1 972 3843 1.00000000E-02
  1 977 3786 1.00000000E-02
  1 981 3853 1.00000000E-02
  1 983 3860 1.00000000E-02
  1 987 3855 1.00000000E-02
  1 989 3854 1.00000000E-02
  1 996 3855 1.00000000E-02
  1 1003 3811 1.00000000E-02
  1 1006 3874 1.00000000E-02
  1 1010 3866 1.00000000E-02
  1 1023 3861 1.00000000E-02
  1 1025 3790 1.00000000E-02
  1 1027 3865 1.00000000E-02
  1 1045 3875 1.00000000E-02
  1 1047 3886 1.00000000E-02
  1 1049 3917 1.00000000E-02
  1 1056 3779 1.00000000E-02
  1 1057 3877 1.00000000E-02
  1 1060 3869 1.00000000E-02
  1 1061 3877 1.00000000E-02
  1 1069 3878 1.00000000E-02
  1 1070 3786 1.00000000E-02
  1 1071 3863 1.00000000E-02
  1 1081 3866 1.00000000E-02
  1 1083 3878 1.00000000E-02
  1 1101 3892 1.00000000E-02
  1 1108 3788 1.00000000E-02
  1 1110 3895 1.00000000E-02
  1 1112 3902 1.00000000E-02
  1 1120 3895 1.00000000E-02
  1 1135 3800 1.00000000E-02
  1 1139 3891 1.00000000E-02
  1 1143 3930 1.00000000E-02
  1 1147 3799 1.00000000E-02
  1 1159 3908 1.00000000E-02
  1 1162 3809 1.00000000E-02
  1 1165 3890 1.00000000E-02
  1 1175 3906 1.00000000E-02
  1 1178 3899 1.00000000E-02
  1 1182 3927 1.00000000E-02
  1 1185 3915 1.00000000E-02
  1 1199 3812 1.00000000E-02
  1 1216 3925 1.00000000E-02
  1 1241 3925 1.00000000E-02
  1 1255 3921 1.00000000E-02
  1 1256 3925 1.00000000E-02
  1 1259 3918 1.00000000E-02
  1 1261 3822 1.00000000E-02
  1 1263 3919 1.00000000E-02
  1 1264 3926 1.00000000E-02
  1 1266 3925 1.00000000E-02
  1 1268 3931 1.00000000E-02
  1 1276 3930 1.00000000E-02
  1 1282 3947 1.00000000E-02
  1 1288 3936 1.00000000E-02
  1 1289 3939 1.00000000E-02
  1 1290 3936 1.00000000E-02
  1 1291 3926 1.00000000E-02
  1 1301 3925 1.00000000E-02
  1 1304 3948 1.00000000E-02
  1 1313 3936 1.00000000E-02
  1 1314 3832 1.00000000E-02
  1 1320 3850 1.00000000E-02
  1 1327 3955 1.00000000E-02
  1 1330 3941 1.00000000E-02
  1 1332 3933 1.00000000E-02
  1 1343 3933 1.00000000E-02
  1 1344 3833 1.00000000E-02
  1 1346 3938 1.00000000E-02
  1 1355 3967 1.00000000E-02
  1 1372 3981 1.00000000E-02
  1 1377 3844 1.00000000E-02
  1 1399 3934 1.00000000E-02
  1 1415 3946 1.00000000E-02
  1 1420 3855 1.00000000E-02
  1 1421 3978 1.00000000E-02
  1 1422 3973 1.00000000E-02
  1 1427 4003 1.00000000E-02
  1 1436 3934 1.00000000E-02
  1 1446 3986 1.00000000E-02
  1 1464 4005 1.00000000E-02
  1 1467 3873 1.00000000E-02
  1 1469 3962 1.00000000E-02
  1 1471 4027 1.00000000E-02
  1 1473 3991 1.00000000E-02
  1 1477 3986 1.00000000E-02
  1 1486 3941 1.00000000E-02
  1 1493 4019 1.00000000E-02
  1 1495 3876 1.00000000E-02
  1 1501 3981 1.00000000E-02
  1 1504 4034 1.00000000E-02
  1 1507 3986 1.00000000E-02
  1 1508 3997 1.00000000E-02
  1 1514 3993 1.00000000E-02
  1 1516 3948 1.00000000E-02
  1 1519 4031 1.00000000E-02
  1 1524 3876 1.00000000E-02
  1 1537 3984 1.00000000E-02
  1 1551 3998 1.00000000E-02
  1 1557 3993 1.00000000E-02
  1 1561 3893 1.00000000E-02
  1 1572 4030 1.00000000E-02
  1 1585 3890 1.00000000E-02
  1 1597 4035 1.00000000E-02
  1 1613 3902 1.00000000E-02
  1 1617 4000 1.00000000E-02
  1 1621 3953 1.00000000E-02
  1 1629 4010 1.00000000E-02
  1 1647 3954 1.00000000E-02
  1 1660 4038 1.00000000E-02
  1 1662 3909 1.00000000E-02
  1 1667 4045 1.00000000E-02
  1 1671 3963 1.00000000E-02
  1 1699 3922 1.00000000E-02
  1 1702 4001 1.00000000E-02
  1 1708 4051 1.00000000E-02
  1 1722 3970 1.00000000E-02
  1 1725 3929 1.00000000E-02
  1 1742 4059 1.00000000E-02
  1 1748 4006 1.00000000E-02
  1 1750 4007 1.00000000E-02
  1 1759 3975 1.00000000E-02
  1 1771 4025 1.00000000E-02
  1 1796 3928 1.00000000E-02
  1 1801 4065 1.00000000E-02
  1 1804 3981 1.00000000E-02
  1 1806 3928 1.00000000E-02
  1 1808 4066 1.00000000E-02
  1 1816 3937 1.00000000E-02
  1 1845 4072 1.00000000E-02
  1 1862 3992 1.00000000E-02
  1 1864 4029 1.00000000E-02
  1 1872 3946 1.00000000E-02
  1 1882 4081 1.00000000E-02
  1 1895 4000 1.00000000E-02
  1 1918 4033 1.00000000E-02
  1 1927 4011 1.00000000E-02
  1 1941 3956 1.00000000E-02
  1 1944 4081 1.00000000E-02
  1 1961 4037 1.00000000E-02
  1 1972 4011 1.00000000E-02
  1 1981 4079 1.00000000E-02
  1 1989 3986 1.00000000E-02
  1 1994 4082 1.00000000E-02
  1 1995 4036 1.00000000E-02
  1 2020 4009 1.00000000E-02
  1 2027 4004 1.00000000E-02
  1 2030 4085 1.00000000E-02
  1 2037 4041 1.00000000E-02
  1 2048 3993 1.00000000E-02
  1 2050 4104 1.00000000E-02
  1 2051 4021 1.00000000E-02
  1 2075 3999 1.00000000E-02
  1 2098 4057 1.00000000E-02
  1 2106 4035 1.00000000E-02
  1 2109 4047 1.00000000E-02
  1 2140 4105 1.00000000E-02
  1 2150 4078 1.00000000E-02
  1 2163 4002 1.00000000E-02
  1 2168 4111 1.00000000E-02
  1 2188 4043 1.00000000E-02
  1 2203 4078 1.00000000E-02
  1 2206 4013 1.00000000E-02
  1 2208 4060 1.00000000E-02
  1 2217 4108 1.00000000E-02
  1 2233 4057 1.00000000E-02
  1 2238 4021 1.00000000E-02
  1 2252 4114 1.00000000E-02
  1 2259 4080 1.00000000E-02
  1 2289 4068 1.00000000E-02
  1 2298 4088 1.00000000E-02
  1 2316 4124 1.00000000E-02
  1 2327 4025 1.00000000E-02
  1 2339 4129 1.00000000E-02
  1 2341 4096 1.00000000E-02
  1 2361 4089 1.00000000E-02
  1 2372 4091 1.00000000E-02
  1 2393 4121 1.00000000E-02
  1 2397 4029 1.00000000E-02
  1 2403 4093 1.00000000E-02
  1 2417 4100 1.00000000E-02
  1 2420 4122 1.00000000E-02
  1 2448 4125 1.00000000E-02
  1 2451 4037 1.00000000E-02
  1 2459 4101 1.00000000E-02
  1 2461 4107 1.00000000E-02
  1 2465 4045 1.00000000E-02
  1 2493 4054 1.00000000E-02
  1 2519 4119 1.00000000E-02
  1 2524 4141 1.00000000E-02
  1 2552 4105 1.00000000E-02
  1 2553 4144 1.00000000E-02
  1 2554 4123 1.00000000E-02
  1 2566 4114 1.00000000E-02
  1 2569 4062 1.00000000E-02
  1 2575 4144 1.00000000E-02
  1 2585 4117 1.00000000E-02
  1 2589 4087 1.00000000E-02
  1 2590 4071 1.00000000E-02
  1 2592 4151 1.00000000E-02
  1 2603 4126 1.00000000E-02
  1 2605 4158 1.00000000E-02
  1 2610 4090 1.00000000E-02
  1 2612 4092 1.00000000E-02
  1 2640 4170 1.00000000E-02
  1 2641 4168 1.00000000E-02
  1 2648 4135 1.00000000E-02
  1 2650 4086 1.00000000E-02
  1 2652 4130 1.00000000E-02
  1 2654 4180 1.00000000E-02
  1 2657 4085 1.00000000E-02
  1 2660 4085 1.00000000E-02
  1 2676 4145 1.00000000E-02
  1 2682 4147 1.00000000E-02
END period  1

BEGIN period  2
  1 1 3868 1.00000000E-02
  1 4 3793 1.00000000E-02
  1 19 3724 1.00000000E-02
  1 21 3714 1.00000000E-02
  1 34 3873 1.00000000E-02
  1 35 3919 1.00000000E-02
  1 36 3906 1.00000000E-02
  1 41 3875 1.00000000E-02
  1 52 3708 1.00000000E-02
  1 54 3835 1.00000000E-02
  1 55 3873 1.00000000E-02
  1 58 3872 1.00000000E-02
  1 59 3850 1.00000000E-02
  1 61 3837 1.00000000E-02
  1 62 3790 1.00000000E-02
  1 65 3863 1.00000000E-02
  1 71 3897 1.00000000E-02
  1 72 3863 1.00000000E-02
  1 74 3863 1.00000000E-02
  1 75 3837 1.00000000E-02
  1 76 3786 1.00000000E-02
  1 81 3842 1.00000000E-02
  1 82 3858 1.00000000E-02
  1 88 3701 1.00000000E-02
  1 92 3855 1.00000000E-02
  1 103 3789 1.00000000E-02
  1 104 3842 1.00000000E-02
  1 107 3837 1.00000000E-02
  1 108 3831 1.00000000E-02
  1 111 3707 1.00000000E-02
  1 122 3789 1.00000000E-02
  1 137 3703 1.00000000E-02
  1 139 3661 1.00000000E-02
  1 141 3824 1.00000000E-02
  1 143 3789 1.00000000E-02
  1 149 3693 1.00000000E-02
  1 159 3783 1.00000000E-02
  1 164 3815 1.00000000E-02
  1 182 3645 1.00000000E-02
  1 186 3643 1.00000000E-02
  1 193 3818 1.00000000E-02
  1 203 3778 1.00000000E-02
  1 207 3650 1.00000000E-02
  1 211 3818 1.00000000E-02
  1 213 3664 1.00000000E-02
  1 220 3678 1.00000000E-02
  1 223 3769 1.00000000E-02
  1 227 3646 1.00000000E-02
  1 234 3666 1.00000000E-02
  1 237 3813 1.00000000E-02
  1 248 3626 1.00000000E-02
  1 252 3637 1.00000000E-02
  1 255 3626 1.00000000E-02
  1 257 3814 1.00000000E-02
  1 260 3765 1.00000000E-02
  1 263 3665 1.00000000E-02
  1 264 3627 1.00000000E-02
  1 265 3662 1.00000000E-02
  1 266 3709 1.00000000E-02
  1 268 3837 1.00000000E-02
  1 271 3680 1.00000000E-02
  1 272 3722 1.00000000E-02
  1 277 3634 1.00000000E-02
  1 281 3733 1.00000000E-02
  1 282 3760 1.00000000E-02
  1 293 3662 1.00000000E-02
  1 294 3810 1.00000000E-02
  1 295 3816 1.00000000E-02
  1 303 3638 1.00000000E-02
  1 304 3740 1.00000000E-02
  1 308 3837 1.00000000E-02
  1 313 3744 1.00000000E-02
  1 315 3662 1.00000000E-02
  1 316 3653 1.00000000E-02
  1 319 3644 1.00000000E-02
  1 338 3816 1.00000000E-02
  1 347 3757 1.00000000E-02
  1 351 3845 1.00000000E-02
  1 358 3817 1.00000000E-02
  1 361 3728 1.00000000E-02
  1 374 3645 1.00000000E-02
  1 376 3666 1.00000000E-02
  1 380 3759 1.00000000E-02
  1 383 3807 1.00000000E-02
  1 385 3830 1.00000000E-02
  1 386 3753 1.00000000E-02
  1 387 3663 1.00000000E-02
  1 388 3845 1.00000000E-02
  1 390 3853 1.00000000E-02
  1 395 3721 1.00000000E-02
  1 397 3847 1.00000000E-02
  1 400 3683 1.00000000E-02
  1 408 3717 1.00000000E-02
  1 409 3679 1.00000000E-02
  1 410 3760 1.00000000E-02
  1 411 3794 1.00000000E-02
  1 416 3646 1.00000000E-02
  1 423 3866 1.00000000E-02
  1 424 3724 1.00000000E-02
  1 431 3862 1.00000000E-02
  1 433 3791 1.00000000E-02
  1 440 3705 1.00000000E-02
  1 442 3769 1.00000000E-02
  1 446 3769 1.00000000E-02
  1 449 3730 1.00000000E-02
  1 451 3765 1.00000000E-02
  1 457 3862 1.00000000E-02
  1 464 3856 1.00000000E-02
  1 465 3762 1.00000000E-02
  1 466 3766 1.00000000E-02
  1 468 3643 1.00000000E-02
  1 472 3690 1.00000000E-02
  1 476 3777 1.00000000E-02
  1 477 3759 1.00000000E-02
  1 480 3740 1.00000000E-02
  1 482 3690 1.00000000E-02
  1 484 3743 1.00000000E-02
  1 485 3880 1.00000000E-02
  1 489 3738 1.00000000E-02
  1 493 3759 1.00000000E-02
  1 500 3875 1.00000000E-02
  1 501 3928 1.00000000E-02
  1 502 3770 1.00000000E-02
  1 506 3647 1.00000000E-02
  1 508 3781 1.00000000E-02
  1 509 3756 1.00000000E-02
  1 511 3892 1.00000000E-02
  1 513 3710 1.00000000E-02
  1 518 3988 1.00000000E-02
  1 521 3878 1.00000000E-02
  1 527 3716 1.00000000E-02
  1 531 3771 1.00000000E-02
  1 544 3766 1.00000000E-02
  1 551 3894 1.00000000E-02
  1 559 3891 1.00000000E-02
  1 561 3650 1.00000000E-02
  1 564 3786 1.00000000E-02
  1 573 3787 1.00000000E-02
  1 574 3790 1.00000000E-02
  1 580 3908 1.00000000E-02
  1 585 3726 1.00000000E-02
  1 589 3783 1.00000000E-02
  1 596 3908 1.00000000E-02
  1 598 3936 1.00000000E-02
  1 603 3790 1.00000000E-02
  1 617 3915 1.00000000E-02
  1 619 3922 1.00000000E-02
  1 620 3923 1.00000000E-02
  1 621 3923 1.00000000E-02
  1 623 3944 1.00000000E-02
  1 626 3652 1.00000000E-02
  1 628 3734 1.00000000E-02
  1 638 3930 1.00000000E-02
  1 640 3790 1.00000000E-02
  1 641 3922 1.00000000E-02
  1 642 3939 1.00000000E-02
  1 643 3808 1.00000000E-02
  1 650 3932 1.00000000E-02
  1 656 3992 1.00000000E-02
  1 659 3955 1.00000000E-02
  1 662 3991 1.00000000E-02
  1 663 4000 1.00000000E-02
  1 666 3652 1.00000000E-02
  1 669 3931 1.00000000E-02
  1 670 3987 1.00000000E-02
  1 672 3931 1.00000000E-02
  1 675 4009 1.00000000E-02
  1 681 3955 1.00000000E-02
  1 682 3932 1.00000000E-02
  1 687 4010 1.00000000E-02
  1 694 3955 1.00000000E-02
  1 696 3974 1.00000000E-02
  1 699 3972 1.00000000E-02
  1 702 4011 1.00000000E-02
  1 703 4017 1.00000000E-02
  1 704 4017 1.00000000E-02
  1 707 3959 1.00000000E-02
  1 709 3821 1.00000000E-02
  1 710 4020 1.00000000E-02
  1 714 3964 1.00000000E-02
  1 717 3971 1.00000000E-02
  1 725 3654 1.00000000E-02
  1 726 3661 1.00000000E-02
  1 743 4019 1.00000000E-02
  1 752 4020 1.00000000E-02
  1 774 3821 1.00000000E-02
  1 775 3757 1.00000000E-02
  1 777 3662 1.00000000E-02
  1 780 3753 1.00000000E-02
  1 791 3819 1.00000000E-02
  1 800 3828 1.00000000E-02
  1 809 3828 1.00000000E-02
  1 815 3764 1.00000000E-02
  1 834 3840 1.00000000E-02
  1 840 3836 1.00000000E-02
  1 843 3836 1.00000000E-02
  1 844 3836 1.00000000E-02
  1 856 3668 1.00000000E-02
  1 862 3771 1.00000000E-02
  1 870 3845 1.00000000E-02
  1 874 3837 1.00000000E-02
  1 877 3668 1.00000000E-02
  1 895 3839 1.00000000E-02
  1 903 3850 1.00000000E-02
  1 904 3781 1.00000000E-02
  1 908 3850 1.00000000E-02
  1 909 3830 1.00000000E-02
  1 920 3671 1.00000000E-02
  1 929 3842 1.00000000E-02
  1 934 3678 1.00000000E-02
  1 935 3780 1.00000000E-02
  1 937 3833 1.00000000E-02
  1 939 3828 1.00000000E-02
  1 944 3830 1.00000000E-02
  1 954 3853 1.00000000E-02
  1 955 3840 1.00000000E-02
  1 972 3843 1.00000000E-02
  1 977 3786 1.00000000E-02
  1 981 3853 1.00000000E-02
  1 983 3860 1.00000000E-02
  1 987 3855 1.00000000E-02
  1 989 3854 1.00000000E-02
  1 996 3855 1.00000000E-02
  1 1003 3811 1.00000000E-02
  1 1006 3874 1.00000000E-02
  1 1010 3866 1.00000000E-02
  1 1023 3861 1.00000000E-02
  1 1025 3790 1.00000000E-02
  1 1027 3865 1.00000000E-02
  1 1045 3875 1.00000000E-02
  1 1047 3886 1.00000000E-02
  1 1049 3917 1.00000000E-02
  1 1056 3779 1.00000000E-02
  1 1057 3877 1.00000000E-02
  1 1060 3869 1.00000000E-02
  1 1061 3877 1.00000000E-02
  1 1069 3878 1.00000000E-02
  1 1070 3786 1.00000000E-02
  1 1071 3863 1.00000000E-02
  1 1081 3866 1.00000000E-02
  1 1083 3878 1.00000000E-02
  1 1101 3892 1.00000000E-02
  1 1108 3788 1.00000000E-02
  1 1110 3895 1.00000000E-02
  1 1112 3902 1.00000000E-02
  1 1120 3895 1.00000000E-02
  1 1135 3800 1.00000000E-02
  1 1139 3891 1.00000000E-02
  1 1143 3930 1.00000000E-02
  1 1147 3799 1.00000000E-02
  1 1159 3908 1.00000000E-02
  1 1162 3809 1.00000000E-02
  1 1165 3890 1.00000000E-02
  1 1175 3906 1.00000000E-02
  1 1178 3899 1.00000000E-02
  1 1182 3927 1.00000000E-02
  1 1185 3915 1.00000000E-02
  1 1199 3812 1.00000000E-02
  1 1216 3925 1.00000000E-02
  1 1241 3925 1.00000000E-02
  1 1255 3921 1.00000000E-02
  1 1256 3925 1.00000000E-02
  1 1259 3918 1.00000000E-02
  1 1261 3822 1.00000000E-02
  1 1263 3919 1.00000000E-02
  1 1264 3926 1.00000000E-02
  1 1266 3925 1.00000000E-02
  1 1268 3931 1.00000000E-02
  1 1276 3930 1.00000000E-02
  1 1282 3947 1.00000000E-02
  1 1288 3936 1.00000000E-02
  1 1289 3939 1.00000000E-02
  1 1290 3936 1.00000000E-02
  1 1291 3926 1.00000000E-02
  1 1301 3925 1.00000000E-02
  1 1304 3948 1.00000000E-02
  1 1313 3936 1.00000000E-02
  1 1314 3832 1.00000000E-02
  1 1320 3850 1.00000000E-02
  1 1327 3955 1.00000000E-02
  1 1330 3941 1.00000000E-02
  1 1332 3933 1.00000000E-02
  1 1343 3933 1.00000000E-02
  1 1344 3833 1.00000000E-02
  1 1346 3938 1.00000000E-02
  1 1355 3967 1.00000000E-02
  1 1372 3981 1.00000000E-02
  1 1377 3844 1.00000000E-02
  1 1399 3934 1.00000000E-02
  1 1415 3946 1.00000000E-02
  1 1420 3855 1.00000000E-02
  1 1421 3978 1.00000000E-02
  1 1422 3973 1.00000000E-02
  1 1427 4003 1.00000000E-02
  1 1436 3934 1.00000000E-02
  1 1446 3986 1.00000000E-02
  1 1464 4005 1.00000000E-02
  1 1467 3873 1.00000000E-02
  1 1469 3962 1.00000000E-02
  1 1471 4027 1.00000000E-02
  1 1473 3991 1.00000000E-02
  1 1477 3986 1.00000000E-02
  1 1486 3941 1.00000000E-02
  1 1493 4019 1.00000000E-02
  1 1495 3876 1.00000000E-02
  1 1501 3981 1.00000000E-02
  1 1504 4034 1.00000000E-02
  1 1507 3986 1.00000000E-02
  1 1508 3997 1.00000000E-02
  1 1514 3993 1.00000000E-02
  1 1516 3948 1.00000000E-02
  1 1519 4031 1.00000000E-02
  1 1524 3876 1.00000000E-02
  1 1537 3984 1.00000000E-02
  1 1551 3998 1.00000000E-02
  1 1557 3993 1.00000000E-02
  1 1561 3893 1.00000000E-02
  1 1572 4030 1.00000000E-02
  1 1585 3890 1.00000000E-02
  1 1597 4035 1.00000000E-02
  1 1613 3902 1.00000000E-02
  1 1617 4000 1.00000000E-02
  1 1621 3953 1.00000000E-02
  1 1629 4010 1.00000000E-02
  1 1647 3954 1.00000000E-02
  1 1660 4038 1.00000000E-02
  1 1662 3909 1.00000000E-02
  1 1667 4045 1.00000000E-02
  1 1671 3963 1.00000000E-02
  1 1699 3922 1.00000000E-02
  1 1702 4001 1.00000000E-02
  1 1708 4051 1.00000000E-02
  1 1722 3970 1.00000000E-02
  1 1725 3929 1.00000000E-02
  1 1742 4059 1.00000000E-02
  1 1748 4006 1.00000000E-02
  1 1750 4007 1.00000000E-02
  1 1759 3975 1.00000000E-02
  1 1771 4025 1.00000000E-02
  1 1796 3928 1.00000000E-02
  1 1801 4065 1.00000000E-02
  1 1804 3981 1.00000000E-02
  1 1806 3928 1.00000000E-02
  1 1808 4066 1.00000000E-02
  1 1816 3937 1.00000000E-02
  1 1845 4072 1.00000000E-02
  1 1862 3992 1.00000000E-02
  1 1864 4029 1.00000000E-02
  1 1872 3946 1.00000000E-02
  1 1882 4081 1.00000000E-02
  1 1895 4000 1.00000000E-02
  1 1918 4033 1.00000000E-02
  1 1927 4011 1.00000000E-02
  1 1941 3956 1.00000000E-02
  1 1944 4081 1.00000000E-02
  1 1961 4037 1.00000000E-02
  1 1972 4011 1.00000000E-02
  1 1981 4079 1.00000000E-02
  1 1989 3986 1.00000000E-02
  1 1994 4082 1.00000000E-02
  1 1995 4036 1.00000000E-02
  1 2020 4009 1.00000000E-02
  1 2027 4004 1.00000000E-02
  1 2030 4085 1.00000000E-02
  1 2037 4041 1.00000000E-02
  1 2048 3993 1.00000000E-02
  1 2050 4104 1.00000000E-02
  1 2051 4021 1.00000000E-02
  1 2075 3999 1.00000000E-02
  1 2098 4057 1.00000000E-02
  1 2106 4035 1.00000000E-02
  1 2109 4047 1.00000000E-02
  1 2140 4105 1.00000000E-02
  1 2150 4078 1.00000000E-02
  1 2163 4002 1.00000000E-02
  1 2168 4111 1.00000000E-02
  1 2188 4043 1.00000000E-02
  1 2203 4078 1.00000000E-02
  1 2206 4013 1.00000000E-02
  1 2208 4060 1.00000000E-02
  1 2217 4108 1.00000000E-02
  1 2233 4057 1.00000000E-02
  1 2238 4021 1.00000000E-02
  1 2252 4114 1.00000000E-02
  1 2259 4080 1.00000000E-02
  1 2289 4068 1.00000000E-02
  1 2298 4088 1.00000000E-02
  1 2316 4124 1.00000000E-02
  1 2327 4025 1.00000000E-02
  1 2339 4129 1.00000000E-02
  1 2341 4096 1.00000000E-02
  1 2361 4089 1.00000000E-02
  1 2372 4091 1.00000000E-02
  1 2393 4121 1.00000000E-02
  1 2397 4029 1.00000000E-02
  1 2403 4093 1.00000000E-02
  1 2417 4100 1.00000000E-02
  1 2420 4122 1.00000000E-02
  1 2448 4125 1.00000000E-02
  1 2451 4037 1.00000000E-02
  1 2459 4101 1.00000000E-02
  1 2461 4107 1.00000000E-02
  1 2465 4045 1.00000000E-02
  1 2493 4054 1.00000000E-02
  1 2519 4119 1.00000000E-02
  1 2524 4141 1.00000000E-02
  1 2552 4105 1.00000000E-02
  1 2553 4144 1.00000000E-02
  1 2554 4123 1.00000000E-02
  1 2566 4114 1.00000000E-02
  1 2569 4062 1.00000000E-02
  1 2575 4144 1.00000000E-02
  1 2585 4117 1.00000000E-02
  1 2589 4087 1.00000000E-02
  1 2590 4071 1.00000000E-02
  1 2592 4151 1.00000000E-02
  1 2603 4126 1.00000000E-02
  1 2605 4158 1.00000000E-02
  1 2610 4090 1.00000000E-02
  1 2612 4092 1.00000000E-02
  1 2640 4170 1.00000000E-02
  1 2641 4168 1.00000000E-02
  1 2648 4135 1.00000000E-02
  1 2650 4086 1.00000000E-02
  1 2652 4130 1.00000000E-02
  1 2654 4180 1.00000000E-02
  1 2657 4085 1.00000000E-02
  1 2660 4085 1.00000000E-02
  1 2676 4145 1.00000000E-02
  1 2682 4147 1.00000000E-02
  1 1480 4000 1.00000000E-02
  1 1490 4000 1.00000000E-02
  1 1509 4000 1.00000000E-02
  1 1511 4000 1.00000000E-02
  1 1517 4000 1.00000000E-02
  1 1528 4000 1.00000000E-02
  1 1533 4000 1.00000000E-02
  1 1563 4000 1.00000000E-02
  1 1580 4000 1.00000000E-02
  1 1592 4000 1.00000000E-02
  1 1606 4000 1.00000000E-02
  1 1608 4000 1.00000000E-02
  1 1628 4000 1.00000000E-02
  1 1657 4000 1.00000000E-02
  1 1663 4000 1.00000000E-02
  1 1683 4000 1.00000000E-02
  1 1690 4000 1.00000000E-02
  1 1700 4000 1.00000000E-02
  1 1715 4000 1.00000000E-02
  1 1720 4000 1.00000000E-02
  1 1732 4000 1.00000000E-02
  1 1746 4000 1.00000000E-02
  1 1754 4000 1.00000000E-02
  1 1763 4000 1.00000000E-02
  1 1787 4000 1.00000000E-02
  1 1792 4000 1.00000000E-02
  1 1803 4000 1.00000000E-02
  1 1821 4000 1.00000000E-02
  1 1837 4000 1.00000000E-02
  1 1847 4000 1.00000000E-02
  1 1875 4000 1.00000000E-02
  1 1884 4000 1.00000000E-02
  1 1896 4000 1.00000000E-02
  1 1913 4000 1.00000000E-02
  1 1917 4000 1.00000000E-02
  1 1934 4000 1.00000000E-02
  1 1945 4000 1.00000000E-02
  1 1953 4000 1.00000000E-02
  1 1975 4000 1.00000000E-02
  1 1984 4000 1.00000000E-02
  1 1992 4000 1.00000000E-02
  1 2012 4000 1.00000000E-02
  1 2021 4000 1.00000000E-02
  1 2022 4000 1.00000000E-02
  1 2023 4000 1.00000000E-02
  1 2032 4000 1.00000000E-02
  1 2035 4000 1.00000000E-02
  1 2036 4000 1.00000000E-02
  1 2058 4000 1.00000000E-02
  1 2063 4000 1.00000000E-02
  1 2095 4000 1.00000000E-02
  1 2097 4000 1.00000000E-02
  1 2103 4000 1.00000000E-02
  1 2128 4000 1.00000000E-02
  2 2129 4000 1.00000000E-02
  2 2152 4000 1.00000000E-02
  2 2167 4000 1.00000000E-02
  2 2178 4000 1.00000000E-02
  2 2192 4000 1.00000000E-02
  2 2204 4000 1.00000000E-02
  2 2215 4000 1.00000000E-02
  2 2219 4000 1.00000000E-02
  2 2225 4000 1.00000000E-02
  2 2228 4000 1.00000000E-02
  2 2242 4000 1.00000000E-02
  2 2248 4000 1.00000000E-02
  2 2253 4000 1.00000000E-02
  2 2254 4000 1.00000000E-02
  3 2262 4000 1.00000000E-02
  3 2265 4000 1.00000000E-02
  3 2267 4000 1.00000000E-02
  3 2268 4000 1.00000000E-02
  3 2280 4000 1.00000000E-02
  3 2290 4000 1.00000000E-02
  3 2311 4000 1.00000000E-02
  3 2320 4000 1.00000000E-02
  3 2330 4000 1.00000000E-02
  3 2352 4000 1.00000000E-02
  3 2353 4000 1.00000000E-02
  3 2380 4000 1.00000000E-02
  3 2385 4000 1.00000000E-02
  3 2387 4000 1.00000000E-02
  3 2390 4000 1.00000000E-02
  3 2391 4000 1.00000000E-02
  3 2394 4000 1.00000000E-02
  3 2395 4000 1.00000000E-02
  3 2398 4000 1.00000000E-02
  3 2405 4000 1.00000000E-02
  3 2421 4000 1.00000000E-02
  3 2423 4000 1.00000000E-02
  3 2427 4000 1.00000000E-02
  3 2442 4000 1.00000000E-02
END period  2

BEGIN period  3
  1 1 3868 1.00000000E-02
  1 4 3793 1.00000000E-02
  1 19 3724 1.00000000E-02
  1 21 3714 1.00000000E-02
  1 34 3873 1.00000000E-02
  1 35 3919 1.00000000E-02
  1 36 3906 1.00000000E-02
  1 41 3875 1.00000000E-02
  1 52 3708 1.00000000E-02
  1 54 3835 1.00000000E-02
  1 55 3873 1.00000000E-02
  1 58 3872 1.00000000E-02
  1 59 3850 1.00000000E-02
  1 61 3837 1.00000000E-02
  1 62 3790 1.00000000E-02
  1 65 3863 1.00000000E-02
  1 71 3897 1.00000000E-02
  1 72 3863 1.00000000E-02
  1 74 3863 1.00000000E-02
  1 75 3837 1.00000000E-02
  1 76 3786 1.00000000E-02
  1 81 3842 1.00000000E-02
  1 82 3858 1.00000000E-02
  1 88 3701 1.00000000E-02
  1 92 3855 1.00000000E-02
  1 103 3789 1.00000000E-02
  1 104 3842 1.00000000E-02
  1 107 3837 1.00000000E-02
  1 108 3831 1.00000000E-02
  1 111 3707 1.00000000E-02
  1 122 3789 1.00000000E-02
  1 137 3703 1.00000000E-02
  1 139 3661 1.00000000E-02
  1 141 3824 1.00000000E-02
  1 143 3789 1.00000000E-02
  1 149 3693 1.00000000E-02
  1 159 3783 1.00000000E-02
  1 164 3815 1.00000000E-02
  1 182 3645 1.00000000E-02
  1 186 3643 1.00000000E-02
  1 193 3818 1.00000000E-02
  1 203 3778 1.00000000E-02
  1 207 3650 1.00000000E-02
  1 211 3818 1.00000000E-02
  1 213 3664 1.00000000E-02
  1 220 3678 1.00000000E-02
  1 223 3769 1.00000000E-02
  1 227 3646 1.00000000E-02
  1 234 3666 1.00000000E-02
  1 237 3813 1.00000000E-02
  1 248 3626 1.00000000E-02
  1 252 3637 1.00000000E-02
  1 255 3626 1.00000000E-02
  1 257 3814 1.00000000E-02
  1 260 3765 1.00000000E-02
  1 263 3665 1.00000000E-02
  1 264 3627 1.00000000E-02
  1 265 3662 1.00000000E-02
  1 266 3709 1.00000000E-02
  1 268 3837 1.00000000E-02
  1 271 3680 1.00000000E-02
  1 272 3722 1.00000000E-02
  1 277 3634 1.00000000E-02
  1 281 3733 1.00000000E-02
  1 282 3760 1.00000000E-02
  1 293 3662 1.00000000E-02
  1 294 3810 1.00000000E-02
  1 295 3816 1.00000000E-02
  1 303 3638 1.00000000E-02
  1 304 3740 1.00000000E-02
  1 308 3837 1.00000000E-02
  1 313 3744 1.00000000E-02
  1 315 3662 1.00000000E-02
  1 316 3653 1.00000000E-02
  1 319 3644 1.00000000E-02
  1 338 3816 1.00000000E-02
  1 347 3757 1.00000000E-02
  1 351 3845 1.00000000E-02
  1 358 3817 1.00000000E-02
  1 361 3728 1.00000000E-02
  1 374 3645 1.00000000E-02
  1 376 3666 1.00000000E-02
  1 380 3759 1.00000000E-02
  1 383 3807 1.00000000E-02
  1 385 3830 1.00000000E-02
  1 386 3753 1.00000000E-02
  1 387 3663 1.00000000E-02
  1 388 3845 1.00000000E-02
  1 390 3853 1.00000000E-02
  1 395 3721 1.00000000E-02
  1 397 3847 1.00000000E-02
  1 400 3683 1.00000000E-02
  1 408 3717 1.00000000E-02
  1 409 3679 1.00000000E-02
  1 410 3760 1.00000000E-02
  1 411 3794 1.00000000E-02