# File generated by Flopy version 3.9.3 on 09/05/2025 at 12:52:41.
BEGIN options
END options

BEGIN dimensions
  MAXBOUND  929
END dimensions

BEGIN period  1
  1 253 4.25000000E+02 1.00000000E-02
  1 276 4.17000000E+02 1.00000000E-02
  1 292 4.26000000E+02 1.00000000E-02
  1 322 4.24000000E+02 1.00000000E-02
  1 337 4.26000000E+02 1.00000000E-02
  1 345 4.42000000E+02 1.00000000E-02
  1 371 4.49000000E+02 1.00000000E-02
  1 435 4.49000000E+02 1.00000000E-02
  1 442 4.49000000E+02 1.00000000E-02
  1 447 4.39000000E+02 1.00000000E-02
  1 449 4.36000000E+02 1.00000000E-02
  1 450 4.50000000E+02 1.00000000E-02
  1 497 4.34000000E+02 1.00000000E-02
  1 513 4.38000000E+02 1.00000000E-02
  1 535 4.38000000E+02 1.00000000E-02
  1 545 4.31000000E+02 1.00000000E-02
  1 567 4.29000000E+02 1.00000000E-02
  1 571 4.22000000E+02 1.00000000E-02
  1 575 4.29000000E+02 1.00000000E-02
  1 629 4.38000000E+02 1.00000000E-02
  1 659 4.38000000E+02 1.00000000E-02
  1 661 4.22000000E+02 1.00000000E-02
  1 686 4.61000000E+02 1.00000000E-02
  1 692 4.90000000E+02 1.00000000E-02
  1 697 4.39000000E+02 1.00000000E-02
  1 701 4.67000000E+02 1.00000000E-02
  1 705 4.25000000E+02 1.00000000E-02
  1 706 4.75000000E+02 1.00000000E-02
  1 711 4.59000000E+02 1.00000000E-02
  1 726 4.43000000E+02 1.00000000E-02
  1 734 4.84000000E+02 1.00000000E-02
  1 735 4.71000000E+02 1.00000000E-02
  1 740 4.53000000E+02 1.00000000E-02
  1 744 4.84000000E+02 1.00000000E-02
  1 746 5.48000000E+02 1.00000000E-02
  1 753 4.93000000E+02 1.00000000E-02
  1 763 4.63000000E+02 1.00000000E-02
  1 769 4.38000000E+02 1.00000000E-02
  1 770 4.79000000E+02 1.00000000E-02
  1 781 4.68000000E+02 1.00000000E-02
  1 787 4.94000000E+02 1.00000000E-02
  1 788 4.76000000E+02 1.00000000E-02
  1 789 4.69000000E+02 1.00000000E-02
  1 793 4.65000000E+02 1.00000000E-02
  1 805 4.84000000E+02 1.00000000E-02
  1 807 4.37000000E+02 1.00000000E-02
  1 808 4.85000000E+02 1.00000000E-02
  1 811 4.84000000E+02 1.00000000E-02
  1 814 4.60000000E+02 1.00000000E-02
  1 822 4.86000000E+02 1.00000000E-02
  1 828 4.78000000E+02 1.00000000E-02
  1 830 4.69000000E+02 1.00000000E-02
  1 837 4.46000000E+02 1.00000000E-02
  1 874 4.74000000E+02 1.00000000E-02
  1 875 4.65000000E+02 1.00000000E-02
  1 889 4.45000000E+02 1.00000000E-02
  1 951 4.74000000E+02 1.00000000E-02
  1 958 4.71000000E+02 1.00000000E-02
  1 967 4.49000000E+02 1.00000000E-02
  1 976 4.79000000E+02 1.00000000E-02
  1 978 4.47000000E+02 1.00000000E-02
  1 982 4.43000000E+02 1.00000000E-02
  1 992 4.62000000E+02 1.00000000E-02
  1 1000 4.54000000E+02 1.00000000E-02
  1 1004 4.56000000E+02 1.00000000E-02
  1 1013 4.78000000E+02 1.00000000E-02
  1 1049 4.51000000E+02 1.00000000E-02
  1 1054 4.98000000E+02 1.00000000E-02
  1 1056 5.04000000E+02 1.00000000E-02
  1 1070 4.50000000E+02 1.00000000E-02
  1 1074 4.86000000E+02 1.00000000E-02
  1 1079 5.08000000E+02 1.00000000E-02
  1 1088 4.68000000E+02 1.00000000E-02
  1 1098 4.92000000E+02 1.00000000E-02
  1 1099 5.06000000E+02 1.00000000E-02
  1 1100 5.03000000E+02 1.00000000E-02
  1 1104 4.85000000E+02 1.00000000E-02
  1 1105 4.90000000E+02 1.00000000E-02
  1 1108 4.69000000E+02 1.00000000E-02
  1 1125 4.65000000E+02 1.00000000E-02
  1 1126 5.08000000E+02 1.00000000E-02
  1 1141 5.14000000E+02 1.00000000E-02
  1 1146 4.85000000E+02 1.00000000E-02
  1 1148 4.75000000E+02 1.00000000E-02
  1 1149 4.85000000E+02 1.00000000E-02
  1 1150 4.61000000E+02 1.00000000E-02
  1 1159 5.03000000E+02 1.00000000E-02
  1 1169 4.81000000E+02 1.00000000E-02
  1 1171 4.90000000E+02 1.00000000E-02
  1 1174 4.97000000E+02 1.00000000E-02
  1 1183 5.08000000E+02 1.00000000E-02
  1 1192 4.98000000E+02 1.00000000E-02
  1 1198 5.05000000E+02 1.00000000E-02
  1 1202 5.14000000E+02 1.00000000E-02
  1 1236 5.11000000E+02 1.00000000E-02
  1 1253 5.22000000E+02 1.00000000E-02
  1 1263 4.80000000E+02 1.00000000E-02
  1 1274 4.49000000E+02 1.00000000E-02
  1 1279 5.39000000E+02 1.00000000E-02
  1 1290 5.15000000E+02 1.00000000E-02
  1 1296 4.47000000E+02 1.00000000E-02
  1 1310 5.24000000E+02 1.00000000E-02
  1 1329 4.55000000E+02 1.00000000E-02
  1 1365 4.61000000E+02 1.00000000E-02
  1 1379 5.22000000E+02 1.00000000E-02
  1 1425 5.23000000E+02 1.00000000E-02
  1 1429 4.59000000E+02 1.00000000E-02
  1 1473 5.24000000E+02 1.00000000E-02
  1 1475 4.60000000E+02 1.00000000E-02
  1 1488 1.01200000E+03 1.00000000E-02
  1 1497 4.53000000E+02 1.00000000E-02
  1 1503 9.83000000E+02 1.00000000E-02
  1 1532 1.00700000E+03 1.00000000E-02
  1 1541 1.01600000E+03 1.00000000E-02
  1 1588 5.16000000E+02 1.00000000E-02
  1 1603 1.01100000E+03 1.00000000E-02
  1 1612 1.03100000E+03 1.00000000E-02
  1 1658 1.01000000E+03 1.00000000E-02
  1 1659 4.62000000E+02 1.00000000E-02
  1 1670 5.13000000E+02 1.00000000E-02
  1 1707 1.01400000E+03 1.00000000E-02
  1 1723 9.73000000E+02 1.00000000E-02
  1 1754 9.63000000E+02 1.00000000E-02
  1 1760 5.35000000E+02 1.00000000E-02
  1 1764 4.64000000E+02 1.00000000E-02
  1 1768 8.99000000E+02 1.00000000E-02
  1 1770 1.01600000E+03 1.00000000E-02
  1 1780 9.86000000E+02 1.00000000E-02
  1 1781 9.03000000E+02 1.00000000E-02
  1 1783 1.03300000E+03 1.00000000E-02
  1 1792 9.09000000E+02 1.00000000E-02
  1 1796 1.01400000E+03 1.00000000E-02
  1 1801 5.51000000E+02 1.00000000E-02
  1 1807 5.15000000E+02 1.00000000E-02
  1 1808 5.79000000E+02 1.00000000E-02
  1 1814 9.98000000E+02 1.00000000E-02
  1 1815 5.54000000E+02 1.00000000E-02
  1 1832 9.04000000E+02 1.00000000E-02
  1 1833 9.74000000E+02 1.00000000E-02
  1 1836 5.47000000E+02 1.00000000E-02
  1 1838 6.01000000E+02 1.00000000E-02
  1 1839 6.74000000E+02 1.00000000E-02
  1 1840 9.68000000E+02 1.00000000E-02
  1 1841 1.05600000E+03 1.00000000E-02
  1 1848 6.80000000E+02 1.00000000E-02
  1 1850 4.71000000E+02 1.00000000E-02
  1 1854 9.06000000E+02 1.00000000E-02
  1 1856 5.58000000E+02 1.00000000E-02
  1 1868 5.24000000E+02 1.00000000E-02
  1 1885 5.40000000E+02 1.00000000E-02
  1 1886 1.09500000E+03 1.00000000E-02
  1 1889 1.07600000E+03 1.00000000E-02
  1 1891 1.11100000E+03 1.00000000E-02
  1 1894 9.12000000E+02 1.00000000E-02
  1 1895 9.08000000E+02 1.00000000E-02
  1 1896 5.52000000E+02 1.00000000E-02
  1 1898 1.07600000E+03 1.00000000E-02
  1 1901 1.01600000E+03 1.00000000E-02
  1 1903 6.68000000E+02 1.00000000E-02
  1 1904 9.68000000E+02 1.00000000E-02
  1 1910 9.47000000E+02 1.00000000E-02
  1 1947 5.49000000E+02 1.00000000E-02
  1 1948 6.17000000E+02 1.00000000E-02
  1 1949 5.45000000E+02 1.00000000E-02
  1 1950 5.50000000E+02 1.00000000E-02
  1 1954 5.67000000E+02 1.00000000E-02
  1 1957 5.69000000E+02 1.00000000E-02
  1 1962 9.84000000E+02 1.00000000E-02
  1 1966 8.96000000E+02 1.00000000E-02
  1 1975 5.20000000E+02 1.00000000E-02
  1 1978 9.39000000E+02 1.00000000E-02
  1 1990 5.56000000E+02 1.00000000E-02
  1 1992 5.45000000E+02 1.00000000E-02
  1 2002 9.46000000E+02 1.00000000E-02
  1 2003 6.98000000E+02 1.00000000E-02
  1 2005 5.56000000E+02 1.00000000E-02
  1 2006 5.92000000E+02 1.00000000E-02
  1 2010 6.10000000E+02 1.00000000E-02
  1 2011 9.34000000E+02 1.00000000E-02
  1 2013 9.11000000E+02 1.00000000E-02
  1 2027 4.64000000E+02 1.00000000E-02
  1 2028 5.08000000E+02 1.00000000E-02
  1 2031 6.74000000E+02 1.00000000E-02
  1 2037 1.09300000E+03 1.00000000E-02
  1 2042 1.09600000E+03 1.00000000E-02
  1 2045 1.10100000E+03 1.00000000E-02
  1 2047 9.92000000E+02 1.00000000E-02
  1 2048 5.57000000E+02 1.00000000E-02
  1 2051 6.04000000E+02 1.00000000E-02
  1 2057 5.52000000E+02 1.00000000E-02
  1 2072 5.15000000E+02 1.00000000E-02
  1 2073 6.15000000E+02 1.00000000E-02
  1 2075 1.13800000E+03 1.00000000E-02
  1 2077 4.64000000E+02 1.00000000E-02
  1 2082 9.40000000E+02 1.00000000E-02
  1 2083 9.43000000E+02 1.00000000E-02
  1 2092 5.47000000E+02 1.00000000E-02
  1 2097 9.47000000E+02 1.00000000E-02
  1 2101 1.12400000E+03 1.00000000E-02
  1 2105 5.52000000E+02 1.00000000E-02
  1 2106 6.77000000E+02 1.00000000E-02
  1 2112 5.56000000E+02 1.00000000E-02
  1 2113 5.63000000E+02 1.00000000E-02
  1 2115 5.34000000E+02 1.00000000E-02
  1 2120 8.97000000E+02 1.00000000E-02
  1 2133 9.12000000E+02 1.00000000E-02
  1 2140 9.44000000E+02 1.00000000E-02
  1 2146 9.05000000E+02 1.00000000E-02
  1 2149 9.66000000E+02 1.00000000E-02
  1 2160 1.08200000E+03 1.00000000E-02
  1 2162 6.39000000E+02 1.00000000E-02
  1 2163 5.06000000E+02 1.00000000E-02
  1 2166 5.08000000E+02 1.00000000E-02
  1 2181 1.11600000E+03 1.00000000E-02
  1 2182 6.89000000E+02 1.00000000E-02
  1 2191 5.42000000E+02 1.00000000E-02
  1 2192 8.99000000E+02 1.00000000E-02
  1 2198 5.91000000E+02 1.00000000E-02
  1 2221 6.79000000E+02 1.00000000E-02
  1 2224 8.99000000E+02 1.00000000E-02
  1 2258 6.16000000E+02 1.00000000E-02
  1 2261 9.35000000E+02 1.00000000E-02
  1 2269 1.02400000E+03 1.00000000E-02
  1 2276 6.01000000E+02 1.00000000E-02
  1 2278 5.92000000E+02 1.00000000E-02
  1 2281 4.70000000E+02 1.00000000E-02
  1 2290 9.18000000E+02 1.00000000E-02
  1 2294 9.24000000E+02 1.00000000E-02
  1 2301 6.04000000E+02 1.00000000E-02
  1 2303 6.04000000E+02 1.00000000E-02
  1 2309 9.36000000E+02 1.00000000E-02
  1 2321 6.44000000E+02 1.00000000E-02
  1 2325 9.02000000E+02 1.00000000E-02
  1 2328 6.85000000E+02 1.00000000E-02
  1 2330 9.31000000E+02 1.00000000E-02
  1 2342 9.01000000E+02 1.00000000E-02
  1 2357 5.50000000E+02 1.00000000E-02
  1 2388 6.70000000E+02 1.00000000E-02
  1 2418 9.42000000E+02 1.00000000E-02
  1 2421 1.19100000E+03 1.00000000E-02
  1 2423 1.23700000E+03 1.00000000E-02
  1 2424 1.12100000E+03 1.00000000E-02
  1 2425 1.15100000E+03 1.00000000E-02
  1 2433 5.20000000E+02 1.00000000E-02
  1 2434 5.32000000E+02 1.00000000E-02
  1 2440 4.71000000E+02 1.00000000E-02
  1 2445 5.10000000E+02 1.00000000E-02
  1 2450 6.44000000E+02 1.00000000E-02
  1 2461 9.89000000E+02 1.00000000E-02
  1 2464 5.53000000E+02 1.00000000E-02
  1 2468 1.19900000E+03 1.00000000E-02
  1 2469 9.35000000E+02 1.00000000E-02
  1 2472 8.92000000E+02 1.00000000E-02
  1 2476 5.16000000E+02 1.00000000E-02
  1 2482 5.72000000E+02 1.00000000E-02
  1 2485 5.89000000E+02 1.00000000E-02
  1 2492 9.43000000E+02 1.00000000E-02
  1 2493 5.97000000E+02 1.00000000E-02
  1 2497 6.53000000E+02 1.00000000E-02
  1 2502 9.18000000E+02 1.00000000E-02
  1 2518 6.06000000E+02 1.00000000E-02
  1 2519 1.16500000E+03 1.00000000E-02
  1 2527 5.82000000E+02 1.00000000E-02
  1 2534 6.69000000E+02 1.00000000E-02
  1 2544 5.52000000E+02 1.00000000E-02
  1 2545 5.80000000E+02 1.00000000E-02
  1 2571 6.41000000E+02 1.00000000E-02
  1 2578 5.36000000E+02 1.00000000E-02
  1 2599 1.18500000E+03 1.00000000E-02
  1 2609 5.51000000E+02 1.00000000E-02
  1 2610 5.93000000E+02 1.00000000E-02
  1 2618 1.13400000E+03 1.00000000E-02
  1 2625 5.10000000E+02 1.00000000E-02
  1 2640 1.21100000E+03 1.00000000E-02
  1 2644 1.22200000E+03 1.00000000E-02
  1 2651 6.00000000E+02 1.00000000E-02
  1 2655 6.08000000E+02 1.00000000E-02
  1 2656 5.43000000E+02 1.00000000E-02
  1 2659 8.92000000E+02 1.00000000E-02
  1 2663 6.33000000E+02 1.00000000E-02
  1 2668 4.64000000E+02 1.00000000E-02
  1 2673 9.62000000E+02 1.00000000E-02
  1 2691 5.78000000E+02 1.00000000E-02
  1 2695 6.45000000E+02 1.00000000E-02
  1 2700 1.11800000E+03 1.00000000E-02
  1 2702 6.15000000E+02 1.00000000E-02
  1 2703 1.16700000E+03 1.00000000E-02
  1 2704 6.13000000E+02 1.00000000E-02
  1 2731 6.28000000E+02 1.00000000E-02
  1 2733 5.74000000E+02 1.00000000E-02
  1 2734 6.19000000E+02 1.00000000E-02
  1 2745 1.21200000E+03 1.00000000E-02
  1 2764 1.20500000E+03 1.00000000E-02
  1 2770 8.86000000E+02 1.00000000E-02
  1 2771 8.96000000E+02 1.00000000E-02
  1 2773 6.17000000E+02 1.00000000E-02
  1 2777 6.05000000E+02 1.00000000E-02
  1 2791 6.33000000E+02 1.00000000E-02
  1 2818 6.62000000E+02 1.00000000E-02
  1 2863 1.32500000E+03 1.00000000E-02
  1 2864 1.19100000E+03 1.00000000E-02
  1 2899 6.07000000E+02 1.00000000E-02
  1 2906 1.14300000E+03 1.00000000E-02
  1 2916 4.58000000E+02 1.00000000E-02
  1 2929 9.59000000E+02 1.00000000E-02
  1 2942 8.68000000E+02 1.00000000E-02
  1 2948 6.28000000E+02 1.00000000E-02
  1 2976 6.43000000E+02 1.00000000E-02
  1 2989 8.81000000E+02 1.00000000E-02
  1 3012 8.77000000E+02 1.00000000E-02
  1 3022 6.64000000E+02 1.00000000E-02
  1 3024 6.63000000E+02 1.00000000E-02
  1 3033 6.72000000E+02 1.00000000E-02
  1 3042 6.75000000E+02 1.00000000E-02
  1 3048 8.77000000E+02 1.00000000E-02
  1 3050 6.10000000E+02 1.00000000E-02
  1 3052 1.18700000E+03 1.00000000E-02
  1 3058 1.30300000E+03 1.00000000E-02
  1 3076 1.31100000E+03 1.00000000E-02
  1 3088 6.72000000E+02 1.00000000E-02
  1 3092 6.60000000E+02 1.00000000E-02
  1 3099 1.27900000E+03 1.00000000E-02
  1 3133 4.87000000E+02 1.00000000E-02
  1 3196 1.21400000E+03 1.00000000E-02
  1 3201 8.70000000E+02 1.00000000E-02
  1 3203 6.29000000E+02 1.00000000E-02
  1 3206 8.58000000E+02 1.00000000E-02
  1 3214 8.60000000E+02 1.00000000E-02
  1 3215 6.78000000E+02 1.00000000E-02
  1 3223 1.28000000E+03 1.00000000E-02
  1 3229 1.31600000E+03 1.00000000E-02
  1 3248 1.18200000E+03 1.00000000E-02
  1 3249 6.36000000E+02 1.00000000E-02
  1 3266 9.67000000E+02 1.00000000E-02
  1 3331 6.72000000E+02 1.00000000E-02
  1 3334 8.27000000E+02 1.00000000E-02
  1 3336 8.76000000E+02 1.00000000E-02
  1 3338 8.44000000E+02 1.00000000E-02
  1 3340 8.55000000E+02 1.00000000E-02
  1 3341 8.76000000E+02 1.00000000E-02
  1 3361 6.99000000E+02 1.00000000E-02
  1 3369 1.19500000E+03 1.00000000E-02
  1 3373 1.27600000E+03 1.00000000E-02
  1 3383 6.90000000E+02 1.00000000E-02
  1 3388 1.25100000E+03 1.00000000E-02
  1 3389 1.21000000E+03 1.00000000E-02
  1 3404 1.29300000E+03 1.00000000E-02
  1 3405 1.49600000E+03 1.00000000E-02
  1 3409 1.28800000E+03 1.00000000E-02
  1 3420 4.80000000E+02 1.00000000E-02
  1 3426 8.65000000E+02 1.00000000E-02
  1 3465 9.71000000E+02 1.00000000E-02
  1 3466 1.22600000E+03 1.00000000E-02
  1 3496 1.25000000E+03 1.00000000E-02
  1 3511 4.86000000E+02 1.00000000E-02
  1 3519 6.79000000E+02 1.00000000E-02
  1 3547 7.19000000E+02 1.00000000E-02
  1 3559 8.27000000E+02 1.00000000E-02
  1 3562 1.45500000E+03 1.00000000E-02
  1 3577 8.29000000E+02 1.00000000E-02
  1 3582 7.32000000E+02 1.00000000E-02
  1 3583 6.80000000E+02 1.00000000E-02
  1 3606 4.77000000E+02 1.00000000E-02
  1 3635 9.74000000E+02 1.00000000E-02
  1 3636 1.21600000E+03 1.00000000E-02
  1 3637 6.72000000E+02 1.00000000E-02
  1 3681 1.44500000E+03 1.00000000E-02
  1 3693 1.30500000E+03 1.00000000E-02
  1 3730 7.02000000E+02 1.00000000E-02
  1 3737 1.48200000E+03 1.00000000E-02
  1 3751 8.42000000E+02 1.00000000E-02
  1 3760 1.43100000E+03 1.00000000E-02
  1 3796 7.29000000E+02 1.00000000E-02
  1 3797 6.71000000E+02 1.00000000E-02
  1 3801 7.28000000E+02 1.00000000E-02
  1 3807 7.01000000E+02 1.00000000E-02
  1 3856 7.06000000E+02 1.00000000E-02
  1 3864 4.61000000E+02 1.00000000E-02
  1 3867 9.76000000E+02 1.00000000E-02
  1 3870 8.36000000E+02 1.00000000E-02
  1 3871 6.96000000E+02 1.00000000E-02
  1 3872 7.00000000E+02 1.00000000E-02
  1 3876 6.98000000E+02 1.00000000E-02
  1 3882 6.67000000E+02 1.00000000E-02
  1 3892 1.45700000E+03 1.00000000E-02
  1 3894 7.13000000E+02 1.00000000E-02
  1 3908 6.71000000E+02 1.00000000E-02
  1 3917 1.32900000E+03 1.00000000E-02
  1 3957 7.25000000E+02 1.00000000E-02
  1 3958 6.93000000E+02 1.00000000E-02
  1 3966 8.37000000E+02 1.00000000E-02
  1 3995 8.41000000E+02 1.00000000E-02
  1 3998 4.57000000E+02 1.00000000E-02
  1 4000 4.61000000E+02 1.00000000E-02
  1 4001 4.65000000E+02 1.00000000E-02
  1 4002 4.70000000E+02 1.00000000E-02
  1 4006 7.10000000E+02 1.00000000E-02
  1 4025 7.02000000E+02 1.00000000E-02
  1 4032 8.35000000E+02 1.00000000E-02
  1 4042 1.34600000E+03 1.00000000E-02
  1 4045 7.29000000E+02 1.00000000E-02
  1 4047 9.90000000E+02 1.00000000E-02
  1 4060 5.11000000E+02 1.00000000E-02
  1 4092 8.25000000E+02 1.00000000E-02
  1 4094 1.42200000E+03 1.00000000E-02
  1 4095 8.28000000E+02 1.00000000E-02
  1 4107 8.09000000E+02 1.00000000E-02
  1 4110 7.21000000E+02 1.00000000E-02
  1 4111 6.99000000E+02 1.00000000E-02
  1 4142 4.99000000E+02 1.00000000E-02
  1 4154 8.21000000E+02 1.00000000E-02
  1 4162 7.14000000E+02 1.00000000E-02
  1 4167 6.99000000E+02 1.00000000E-02
  1 4171 8.16000000E+02 1.00000000E-02
  1 4184 7.99000000E+02 1.00000000E-02
  1 4187 4.73000000E+02 1.00000000E-02
  1 4190 8.26000000E+02 1.00000000E-02
  1 4195 8.26000000E+02 1.00000000E-02
  1 4201 4.93000000E+02 1.00000000E-02
  1 4203 7.07000000E+02 1.00000000E-02
  1 4206 7.31000000E+02 1.00000000E-02
  1 4207 4.82000000E+02 1.00000000E-02
  1 4209 1.41400000E+03 1.00000000E-02
  1 4239 1.30900000E+03 1.00000000E-02
  1 4259 4.80000000E+02 1.00000000E-02
  1 4281 1.00900000E+03 1.00000000E-02
  1 4282 8.11000000E+02 1.00000000E-02
  1 4283 8.21000000E+02 1.00000000E-02
  1 4290 8.26000000E+02 1.00000000E-02
  1 4296 7.31000000E+02 1.00000000E-02
  1 4302 7.15000000E+02 1.00000000E-02
  1 4321 7.07000000E+02 1.00000000E-02
  1 4323 7.79000000E+02 1.00000000E-02
  1 4324 7.84000000E+02 1.00000000E-02
  1 4335 1.41900000E+03 1.00000000E-02
  1 4336 8.12000000E+02 1.00000000E-02
  1 4346 6.97000000E+02 1.00000000E-02
  1 4347 7.37000000E+02 1.00000000E-02
  1 4368 7.33000000E+02 1.00000000E-02
  1 4373 4.89000000E+02 1.00000000E-02
  1 4393 1.29700000E+03 1.00000000E-02
  1 4413 4.89000000E+02 1.00000000E-02
  1 4415 7.18000000E+02 1.00000000E-02
  1 4424 4.78000000E+02 1.00000000E-02
  1 4425 4.80000000E+02 1.00000000E-02
  1 4427 8.24000000E+02 1.00000000E-02
  1 4430 8.00000000E+02 1.00000000E-02
  1 4431 1.32600000E+03 1.00000000E-02
  1 4435 7.70000000E+02 1.00000000E-02
  1 4436 4.75000000E+02 1.00000000E-02
  1 4451 1.39500000E+03 1.00000000E-02
  1 4453 1.00800000E+03 1.00000000E-02
  1 4461 7.31000000E+02 1.00000000E-02
  1 4470 1.34500000E+03 1.00000000E-02
  1 4481 7.85000000E+02 1.00000000E-02
  1 4492 7.68000000E+02 1.00000000E-02
  1 4495 7.65000000E+02 1.00000000E-02
  1 4522 7.38000000E+02 1.00000000E-02
  1 4527 4.74000000E+02 1.00000000E-02
  1 4536 7.34000000E+02 1.00000000E-02
  1 4550 5.10000000E+02 1.00000000E-02
  1 4552 5.01000000E+02 1.00000000E-02
  1 4553 4.87000000E+02 1.00000000E-02
  1 4554 4.98000000E+02 1.00000000E-02
  1 4563 8.29000000E+02 1.00000000E-02
  1 4564 7.36000000E+02 1.00000000E-02
  1 4565 1.32700000E+03 1.00000000E-02
  1 4566 7.18000000E+02 1.00000000E-02
  1 4575 8.35000000E+02 1.00000000E-02
  1 4580 4.88000000E+02 1.00000000E-02
  1 4583 7.65000000E+02 1.00000000E-02
  1 4586 7.78000000E+02 1.00000000E-02
  1 4609 4.89000000E+02 1.00000000E-02
  1 4610 4.94000000E+02 1.00000000E-02
  1 4616 7.78000000E+02 1.00000000E-02
  1 4636 5.00000000E+02 1.00000000E-02
  1 4648 7.60000000E+02 1.00000000E-02
  1 4652 8.16000000E+02 1.00000000E-02
  1 4658 7.74000000E+02 1.00000000E-02
  1 4665 7.39000000E+02 1.00000000E-02
  1 4678 4.80000000E+02 1.00000000E-02
  1 4679 4.96000000E+02 1.00000000E-02
  1 4680 5.00000000E+02 1.00000000E-02
  1 4695 7.64000000E+02 1.00000000E-02
  1 4698 8.10000000E+02 1.00000000E-02
  1 4700 1.00800000E+03 1.00000000E-02
  1 4709 1.35600000E+03 1.00000000E-02
  1 4777 7.78000000E+02 1.00000000E-02
  1 4779 1.02200000E+03 1.00000000E-02
  1 4809 4.93000000E+02 1.00000000E-02
  1 4816 8.19000000E+02 1.00000000E-02
  1 4820 4.80000000E+02 1.00000000E-02
  1 4827 4.92000000E+02 1.00000000E-02
  1 4829 4.96000000E+02 1.00000000E-02
  1 4836 7.94000000E+02 1.00000000E-02
  1 4837 7.89000000E+02 1.00000000E-02
  1 4838 7.97000000E+02 1.00000000E-02
  1 4845 7.68000000E+02 1.00000000E-02
  1 4851 8.09000000E+02 1.00000000E-02
  1 4861 7.87000000E+02 1.00000000E-02
  1 4865 1.37800000E+03 1.00000000E-02
  1 4873 1.03500000E+03 1.00000000E-02
  1 4874 8.07000000E+02 1.00000000E-02
  1 4933 4.92000000E+02 1.00000000E-02
  1 4938 5.05000000E+02 1.00000000E-02
  1 4939 5.05000000E+02 1.00000000E-02
  1 4953 7.98000000E+02 1.00000000E-02
  1 4962 8.14000000E+02 1.00000000E-02
  1 4963 1.04300000E+03 1.00000000E-02
  1 5018 1.36000000E+03 1.00000000E-02
  1 5020 7.79000000E+02 1.00000000E-02
  1 5030 4.99000000E+02 1.00000000E-02
  1 5054 5.04000000E+02 1.00000000E-02
  1 5065 1.04500000E+03 1.00000000E-02
  1 5131 5.04000000E+02 1.00000000E-02
  1 5132 5.06000000E+02 1.00000000E-02
  1 5167 1.38800000E+03 1.00000000E-02
  1 5170 1.36600000E+03 1.00000000E-02
  1 5222 4.98000000E+02 1.00000000E-02
  1 5229 1.05900000E+03 1.00000000E-02
  1 5251 5.04000000E+02 1.00000000E-02
  1 5267 1.08800000E+03 1.00000000E-02
  1 5301 5.04000000E+02 1.00000000E-02
  1 5323 5.02000000E+02 1.00000000E-02
  1 5372 1.35900000E+03 1.00000000E-02
  1 5379 5.02000000E+02 1.00000000E-02
  1 5383 1.44700000E+03 1.00000000E-02
  1 5389 1.43800000E+03 1.00000000E-02
  1 5397 1.43000000E+03 1.00000000E-02
  1 5403 5.02000000E+02 1.00000000E-02
  1 5405 1.10200000E+03 1.00000000E-02
  1 5411 1.47100000E+03 1.00000000E-02
  1 5438 1.38400000E+03 1.00000000E-02
  1 5446 4.99000000E+02 1.00000000E-02
  1 5448 5.09000000E+02 1.00000000E-02
  1 5472 1.39700000E+03 1.00000000E-02
  1 5557 1.10700000E+03 1.00000000E-02
  1 5571 1.47300000E+03 1.00000000E-02
  1 5585 5.01000000E+02 1.00000000E-02
  1 5596 5.16000000E+02 1.00000000E-02
  1 5598 5.21000000E+02 1.00000000E-02
  1 5628 5.04000000E+02 1.00000000E-02
  1 5639 1.09600000E+03 1.00000000E-02
  1 5647 1.47600000E+03 1.00000000E-02
  1 5662 5.02000000E+02 1.00000000E-02
  1 5670 5.06000000E+02 1.00000000E-02
  1 5679 4.95000000E+02 1.00000000E-02
  1 5681 5.03000000E+02 1.00000000E-02
  1 5682 5.06000000E+02 1.00000000E-02
  1 5689 4.96000000E+02 1.00000000E-02
  1 5690 5.03000000E+02 1.00000000E-02
  1 5695 1.54200000E+03 1.00000000E-02
  1 5705 1.11700000E+03 1.00000000E-02
  1 5713 1.49800000E+03 1.00000000E-02
  1 5715 1.54600000E+03 1.00000000E-02
  1 5722 5.00000000E+02 1.00000000E-02
  1 5727 4.93000000E+02 1.00000000E-02
  1 5739 1.53000000E+03 1.00000000E-02
  1 5745 1.15100000E+03 1.00000000E-02
  1 5752 1.55300000E+03 1.00000000E-02
  1 5755 5.15000000E+02 1.00000000E-02
  1 5761 1.48000000E+03 1.00000000E-02
  1 5785 1.54000000E+03 1.00000000E-02
  1 5797 5.06000000E+02 1.00000000E-02
  1 5825 5.24000000E+02 1.00000000E-02
  1 5839 1.61400000E+03 1.00000000E-02
  1 5841 1.13800000E+03 1.00000000E-02
  1 5852 5.60000000E+02 1.00000000E-02
  1 5863 1.57400000E+03 1.00000000E-02
  1 5867 1.19000000E+03 1.00000000E-02
  1 5891 5.21000000E+02 1.00000000E-02
  1 5896 1.56800000E+03 1.00000000E-02
  1 5914 1.15700000E+03 1.00000000E-02
  1 5963 5.19000000E+02 1.00000000E-02
  1 5982 1.59900000E+03 1.00000000E-02
  1 5989 1.15700000E+03 1.00000000E-02
  1 5996 1.59200000E+03 1.00000000E-02
  1 5998 5.18000000E+02 1.00000000E-02
  1 6002 5.29000000E+02 1.00000000E-02
  1 6030 1.17400000E+03 1.00000000E-02
  1 6034 5.32000000E+02 1.00000000E-02
  1 6051 5.33000000E+02 1.00000000E-02
  1 6052 5.31000000E+02 1.00000000E-02
  1 6055 1.19000000E+03 1.00000000E-02
  1 6057 1.60500000E+03 1.00000000E-02
  1 6085 1.63000000E+03 1.00000000E-02
  1 6097 5.39000000E+02 1.00000000E-02
  1 6098 1.67900000E+03 1.00000000E-02
  1 6101 1.65300000E+03 1.00000000E-02
  1 6113 5.43000000E+02 1.00000000E-02
  1 6123 1.63600000E+03 1.00000000E-02
  1 6124 1.66400000E+03 1.00000000E-02
  1 6125 1.67100000E+03 1.00000000E-02
  1 6148 1.70800000E+03 1.00000000E-02
  1 6152 1.64200000E+03 1.00000000E-02
  1 6161 5.36000000E+02 1.00000000E-02
  1 6180 1.77200000E+03 1.00000000E-02
  1 6227 1.64100000E+03 1.00000000E-02
  1 6233 1.61500000E+03 1.00000000E-02
  1 6234 1.65100000E+03 1.00000000E-02
  1 6235 1.62900000E+03 1.00000000E-02
  1 6237 1.68000000E+03 1.00000000E-02
  1 6241 1.66100000E+03 1.00000000E-02
  1 6244 5.70000000E+02 1.00000000E-02
  1 6257 5.30000000E+02 1.00000000E-02
  1 6261 1.71900000E+03 1.00000000E-02
  1 6282 1.63100000E+03 1.00000000E-02
  1 6295 1.66800000E+03 1.00000000E-02
  1 6297 5.62000000E+02 1.00000000E-02
  1 6310 1.70300000E+03 1.00000000E-02
  1 6327 5.61000000E+02 1.00000000E-02
  1 6334 1.76200000E+03 1.00000000E-02
  1 6365 1.74100000E+03 1.00000000E-02
  1 6366 5.47000000E+02 1.00000000E-02
  1 6397 1.76500000E+03 1.00000000E-02
  1 6408 5.82000000E+02 1.00000000E-02
  1 6427 5.55000000E+02 1.00000000E-02
  1 6430 1.76500000E+03 1.00000000E-02
  1 6448 5.64000000E+02 1.00000000E-02
  1 6470 5.76000000E+02 1.00000000E-02
  1 6472 1.79000000E+03 1.00000000E-02
  1 6535 5.54000000E+02 1.00000000E-02
  1 6574 5.95000000E+02 1.00000000E-02
  1 6580 1.76000000E+03 1.00000000E-02
  1 6581 1.80300000E+03 1.00000000E-02
  1 6591 5.56000000E+02 1.00000000E-02
  1 6593 1.82400000E+03 1.00000000E-02
  1 6599 5.54000000E+02 1.00000000E-02
  1 6601 5.90000000E+02 1.00000000E-02
  1 6609 5.68000000E+02 1.00000000E-02
  1 6627 1.77700000E+03 1.00000000E-02
  1 6647 5.64000000E+02 1.00000000E-02
  1 6658 5.64000000E+02 1.00000000E-02
  1 6676 5.65000000E+02 1.00000000E-02
  1 6684 5.60000000E+02 1.00000000E-02
  1 6701 5.60000000E+02 1.00000000E-02
  1 6719 1.75700000E+03 1.00000000E-02
  1 6723 5.73000000E+02 1.00000000E-02
  1 6739 6.16000000E+02 1.00000000E-02
  1 6743 1.75400000E+03 1.00000000E-02
  1 6766 5.79000000E+02 1.00000000E-02
  1 6775 6.24000000E+02 1.00000000E-02
  1 6776 5.98000000E+02 1.00000000E-02
  1 6778 5.78000000E+02 1.00000000E-02
  1 6793 5.99000000E+02 1.00000000E-02
  1 6798 5.79000000E+02 1.00000000E-02
  1 6803 1.77500000E+03 1.00000000E-02
  1 6825 1.79400000E+03 1.00000000E-02
  1 6855 5.84000000E+02 1.00000000E-02
  1 6863 5.89000000E+02 1.00000000E-02
  1 6866 6.12000000E+02 1.00000000E-02
  1 6867 5.89000000E+02 1.00000000E-02
  1 6887 1.78100000E+03 1.00000000E-02
  1 6904 6.15000000E+02 1.00000000E-02
  1 6905 5.95000000E+02 1.00000000E-02
  1 6909 6.37000000E+02 1.00000000E-02
  1 6936 5.98000000E+02 1.00000000E-02
  1 6940 1.80500000E+03 1.00000000E-02
  1 6947 6.15000000E+02 1.00000000E-02
  1 6948 6.15000000E+02 1.00000000E-02
  1 6951 6.41000000E+02 1.00000000E-02
  1 6991 5.98000000E+02 1.00000000E-02
  1 6996 6.00000000E+02 1.00000000E-02
  1 7000 6.07000000E+02 1.00000000E-02
  1 7003 6.20000000E+02 1.00000000E-02
  1 7041 6.11000000E+02 1.00000000E-02
  1 7066 6.03000000E+02 1.00000000E-02
  1 7071 1.83100000E+03 1.00000000E-02
  1 7094 6.16000000E+02 1.00000000E-02
  1 7097 6.03000000E+02 1.00000000E-02
  1 7123 1.79500000E+03 1.00000000E-02
  1 7144 6.24000000E+02 1.00000000E-02
  1 7145 6.15000000E+02 1.00000000E-02
  1 7154 6.33000000E+02 1.00000000E-02
  1 7169 6.25000000E+02 1.00000000E-02
  1 7179 1.81000000E+03 1.00000000E-02
  1 7187 6.06000000E+02 1.00000000E-02
  1 7191 6.11000000E+02 1.00000000E-02
  1 7192 6.06000000E+02 1.00000000E-02
  1 7203 6.72000000E+02 1.00000000E-02
  1 7219 5.96000000E+02 1.00000000E-02
  1 7235 1.82400000E+03 1.00000000E-02
  1 7280 6.57000000E+02 1.00000000E-02
  1 7299 7.47000000E+02 1.00000000E-02
  1 7312 8.27000000E+02 1.00000000E-02
  1 7321 6.94000000E+02 1.00000000E-02
  1 7324 7.48000000E+02 1.00000000E-02
  1 7326 7.02000000E+02 1.00000000E-02
  1 7338 6.36000000E+02 1.00000000E-02
  1 7345 1.80900000E+03 1.00000000E-02
  1 7358 7.08000000E+02 1.00000000E-02
  1 7359 7.93000000E+02 1.00000000E-02
  1 7361 8.23000000E+02 1.00000000E-02
  1 7374 8.24000000E+02 1.00000000E-02
  1 7375 7.58000000E+02 1.00000000E-02
  1 7376 7.60000000E+02 1.00000000E-02
  1 7382 1.81700000E+03 1.00000000E-02
  1 7389 6.40000000E+02 1.00000000E-02
  1 7390 6.25000000E+02 1.00000000E-02
  1 7404 7.14000000E+02 1.00000000E-02
  1 7406 7.37000000E+02 1.00000000E-02
  1 7409 7.99000000E+02 1.00000000E-02
  1 7422 8.30000000E+02 1.00000000E-02
  1 7429 7.06000000E+02 1.00000000E-02
  1 7436 6.29000000E+02 1.00000000E-02
  1 7442 7.57000000E+02 1.00000000E-02
  1 7469 6.33000000E+02 1.00000000E-02
  1 7470 7.11000000E+02 1.00000000E-02
  1 7474 8.22000000E+02 1.00000000E-02
  1 7479 7.33000000E+02 1.00000000E-02
  1 7481 1.83400000E+03 1.00000000E-02
  1 7482 7.08000000E+02 1.00000000E-02
  1 7523 7.09000000E+02 1.00000000E-02
  1 7534 6.67000000E+02 1.00000000E-02
  1 7537 6.29000000E+02 1.00000000E-02
  1 7539 1.82600000E+03 1.00000000E-02
  1 7548 6.99000000E+02 1.00000000E-02
  1 7549 6.78000000E+02 1.00000000E-02
  1 7550 8.48000000E+02 1.00000000E-02
  1 7556 6.77000000E+02 1.00000000E-02
  1 7559 8.38000000E+02 1.00000000E-02
  1 7560 6.89000000E+02 1.00000000E-02
  1 7567 6.31000000E+02 1.00000000E-02
  1 7568 6.62000000E+02 1.00000000E-02
  1 7580 6.74000000E+02 1.00000000E-02
  1 7589 8.74000000E+02 1.00000000E-02
  1 7595 6.65000000E+02 1.00000000E-02
  1 7599 7.11000000E+02 1.00000000E-02
  1 7608 8.62000000E+02 1.00000000E-02
  1 7617 1.87500000E+03 1.00000000E-02
  1 7620 6.29000000E+02 1.00000000E-02
  1 7622 7.24000000E+02 1.00000000E-02
  1 7630 7.11000000E+02 1.00000000E-02
  1 7640 6.25000000E+02 1.00000000E-02
  1 7643 6.63000000E+02 1.00000000E-02
  1 7648 6.55000000E+02 1.00000000E-02
  1 7654 8.24000000E+02 1.00000000E-02
  1 7657 6.54000000E+02 1.00000000E-02
  1 7664 6.71000000E+02 1.00000000E-02
  1 7665 6.58000000E+02 1.00000000E-02
  1 7671 6.80000000E+02 1.00000000E-02
  1 7675 6.25000000E+02 1.00000000E-02
  1 7677 8.57000000E+02 1.00000000E-02
  1 7681 1.86700000E+03 1.00000000E-02
  1 7683 8.65000000E+02 1.00000000E-02
  1 7685 6.80000000E+02 1.00000000E-02
  1 7692 8.57000000E+02 1.00000000E-02
  1 7698 6.80000000E+02 1.00000000E-02
  1 7700 6.27000000E+02 1.00000000E-02
  1 7713 6.78000000E+02 1.00000000E-02
  1 7719 6.74000000E+02 1.00000000E-02
  1 7765 7.18000000E+02 1.00000000E-02
  1 7773 1.35200000E+03 1.00000000E-02
  1 7776 8.74000000E+02 1.00000000E-02
  1 7787 1.84300000E+03 1.00000000E-02
  1 7794 8.93000000E+02 1.00000000E-02
  1 7804 8.56000000E+02 1.00000000E-02
  1 7806 8.72000000E+02 1.00000000E-02
  1 7807 8.78000000E+02 1.00000000E-02
  1 7819 6.83000000E+02 1.00000000E-02
  1 7821 1.85600000E+03 1.00000000E-02
  1 7827 1.36000000E+03 1.00000000E-02
  1 7835 6.99000000E+02 1.00000000E-02
  1 7840 6.32000000E+02 1.00000000E-02
  1 7853 1.35900000E+03 1.00000000E-02
  1 7855 6.81000000E+02 1.00000000E-02