# File generated by Flopy version 3.9.3 on 09/05/2025 at 12:52:41.
BEGIN options
  BUDGET  FILEOUT  mf6Model.cbc
  HEAD  FILEOUT  mf6Model.hds
END options

BEGIN period  1
  SAVE  HEAD  LAST
  SAVE  BUDGET  LAST
END period  1

