# File generated by Flopy version 3.9.3 on 09/05/2025 at 12:52:39.
BEGIN options
END options

BEGIN dimensions
  NLAY  5
  NCPL  10040
  NVERT  20220
END dimensions

BEGIN griddata
  top
    INTERNAL  FACTOR  1.0
      2000.00000000    2025.00000000    1783.00000000    1921.00000000    1907.00000000    2338.00000000    1862.00000000    2023.00000000    2293.00000000    1983.00000000    2009.00000000    1719.00000000    2083.00000000    1939.00000000    1755.00000000    2057.00000000    1709.00000000    1441.00000000    1797.00000000    2154.00000000
      1642.00000000    1917.00000000    2087.00000000    1819.00000000    1591.00000000    1501.00000000    1701.00000000    2272.00000000    1979.00000000    2140.00000000    2125.00000000    2132.00000000    1872.00000000    1603.00000000    1552.00000000    1892.00000000    1430.00000000    1759.00000000    1987.00000000    1508.00000000
      1690.00000000    1996.00000000    2337.00000000    2109.00000000    1686.00000000    2127.00000000    1934.00000000    1733.00000000    1960.00000000    2275.00000000    2121.00000000    2392.00000000    1687.00000000    1592.00000000    2234.00000000    2254.00000000    1965.00000000    2155.00000000    2316.00000000    1992.00000000
      1874.00000000    2078.00000000    2052.00000000    1879.00000000    2092.00000000    2089.00000000    2078.00000000    1897.00000000    2170.00000000    1807.00000000    2432.00000000    1294.00000000    2254.00000000    2419.00000000    2321.00000000    1671.00000000    2102.00000000    2057.00000000    1880.00000000    2350.00000000
      1752.00000000    2072.00000000    1539.00000000    1854.00000000    1850.00000000    1762.00000000    1894.00000000    2207.00000000    2645.00000000    2300.00000000    1579.00000000    1662.00000000    2395.00000000    2035.00000000    2419.00000000    2380.00000000    2007.00000000    2132.00000000     441.00000000    2108.00000000
      2298.00000000    2166.00000000    2154.00000000    1963.00000000    1778.00000000    1536.00000000    2423.00000000    2294.00000000    2277.00000000    1802.00000000    1357.00000000    1504.00000000    2017.00000000    2055.00000000    2098.00000000    2072.00000000    2377.00000000    2387.00000000    2321.00000000    1571.00000000
      1789.00000000    2076.00000000    1535.00000000    1701.00000000    1201.00000000    1276.00000000    1271.00000000    1470.00000000    1758.00000000    1228.00000000    1257.00000000    1572.00000000    1339.00000000    1663.00000000    2389.00000000    2351.00000000    1310.00000000    1511.00000000    1325.00000000    2157.00000000
      2395.00000000    2385.00000000    2381.00000000    1736.00000000    1777.00000000    1939.00000000    1143.00000000    1049.00000000    1418.00000000    1498.00000000    2344.00000000    2365.00000000    2077.00000000    2061.00000000    1602.00000000    1519.00000000    1753.00000000    1889.00000000    1515.00000000    2385.00000000
      1480.00000000    1328.00000000    1122.00000000    1786.00000000    2302.00000000    2303.00000000    1625.00000000    2211.00000000    2073.00000000    1263.00000000    2029.00000000    2224.00000000    1080.00000000    1558.00000000    1525.00000000    1071.00000000    1787.00000000    1918.00000000    1779.00000000    1685.00000000
      2362.00000000    2259.00000000    1243.00000000    2250.00000000    1474.00000000     943.00000000    1790.00000000    2063.00000000    1205.00000000    1678.00000000     957.00000000     958.00000000    1509.00000000    1635.00000000    2294.00000000    1765.00000000    2168.00000000    1574.00000000    1415.00000000    1950.00000000
      1830.00000000    2335.00000000    1883.00000000    2023.00000000     859.00000000     886.00000000    1680.00000000    1009.00000000    1455.00000000     969.00000000    1597.00000000    1552.00000000    1359.00000000    1262.00000000    1243.00000000     828.00000000    1489.00000000    1513.00000000    1266.00000000    1474.00000000
      2022.00000000    1532.00000000    1960.00000000    1943.00000000    1949.00000000    2330.00000000    2315.00000000    1545.00000000    1325.00000000    1467.00000000    1438.00000000    1163.00000000    1274.00000000    1524.00000000    2134.00000000    1269.00000000    2023.00000000     429.00000000    2164.00000000    1847.00000000
      1631.00000000    1972.00000000    1360.00000000     731.00000000     831.00000000    1292.00000000    1334.00000000    1347.00000000    1291.00000000    1418.00000000    2402.00000000     441.00000000     425.00000000    1830.00000000     474.00000000    1942.00000000    1303.00000000    1495.00000000     435.00000000    1224.00000000
       778.00000000    1559.00000000    1148.00000000    1450.00000000    1416.00000000    1329.00000000     840.00000000    2127.00000000    1643.00000000    1444.00000000     753.00000000    1638.00000000    1176.00000000    1359.00000000    1396.00000000     417.00000000     429.00000000    2058.00000000    2726.00000000    1555.00000000
      1205.00000000    1589.00000000    1074.00000000    1462.00000000     489.00000000     807.00000000    1024.00000000    1198.00000000    1345.00000000     825.00000000    1679.00000000     426.00000000    1789.00000000    1331.00000000    1908.00000000     452.00000000     427.00000000     805.00000000     502.00000000     805.00000000
      2644.00000000    2374.00000000    1364.00000000    1199.00000000    1858.00000000     780.00000000     764.00000000    1280.00000000     456.00000000    1458.00000000     700.00000000    1147.00000000    2109.00000000     434.00000000     432.00000000    1361.00000000    1308.00000000    1204.00000000    1414.00000000    1056.00000000
       527.00000000     424.00000000     441.00000000    2127.00000000    2621.00000000    1680.00000000     697.00000000     510.00000000     447.00000000     819.00000000     447.00000000    1029.00000000     619.00000000     449.00000000     462.00000000    1723.00000000     426.00000000     531.00000000    1381.00000000    1346.00000000
      1324.00000000     438.00000000    1089.00000000    1158.00000000     442.00000000     448.00000000     655.00000000    1459.00000000     621.00000000    1676.00000000    2359.00000000    2221.00000000    2505.00000000    1270.00000000    1112.00000000    1378.00000000     435.00000000     572.00000000    1103.00000000    1251.00000000
      1107.00000000    1029.00000000     599.00000000     451.00000000     649.00000000     619.00000000     672.00000000    2224.00000000    1146.00000000    1226.00000000     449.00000000     462.00000000    1058.00000000     445.00000000     501.00000000     461.00000000    2596.00000000    2628.00000000    1407.00000000    1721.00000000
      1718.00000000    1816.00000000    1891.00000000    1725.00000000    1549.00000000    1435.00000000    1522.00000000    1309.00000000    1518.00000000    2192.00000000    1297.00000000    1216.00000000    1230.00000000    1199.00000000    1177.00000000    1350.00000000    1066.00000000     989.00000000    1186.00000000    1230.00000000
       997.00000000     995.00000000     784.00000000     813.00000000     510.00000000     445.00000000    1085.00000000    1183.00000000     439.00000000     573.00000000     549.00000000     705.00000000    1037.00000000    1121.00000000     671.00000000    1869.00000000    1289.00000000     520.00000000    1426.00000000     576.00000000
       697.00000000     563.00000000     424.00000000     608.00000000    1213.00000000     435.00000000     540.00000000    1029.00000000    2600.00000000     471.00000000     702.00000000    1462.00000000    1460.00000000     490.00000000     449.00000000     505.00000000    1080.00000000    1418.00000000     431.00000000     443.00000000
       439.00000000     449.00000000     911.00000000    1467.00000000    2599.00000000     433.00000000     439.00000000     604.00000000     436.00000000     450.00000000    2378.00000000     553.00000000    1427.00000000     449.00000000    1040.00000000    1127.00000000    1571.00000000    1444.00000000     558.00000000     464.00000000
      1280.00000000     594.00000000     867.00000000    1248.00000000    1418.00000000    1151.00000000    1834.00000000     444.00000000     657.00000000     455.00000000     953.00000000    2563.00000000    2532.00000000     552.00000000    1219.00000000    2588.00000000    2644.00000000    2700.00000000     461.00000000     454.00000000
       623.00000000     555.00000000     612.00000000     835.00000000    2593.00000000    1495.00000000     510.00000000     491.00000000     618.00000000     566.00000000    1319.00000000    1482.00000000     661.00000000     456.00000000     458.00000000     460.00000000     434.00000000    1040.00000000    2239.00000000     584.00000000
       635.00000000     617.00000000     606.00000000    2727.00000000     619.00000000     543.00000000     497.00000000     478.00000000     444.00000000    1419.00000000     471.00000000    1592.00000000     438.00000000     461.00000000     536.00000000     580.00000000     508.00000000    2735.00000000    2716.00000000     574.00000000
       858.00000000     551.00000000     563.00000000     608.00000000     555.00000000     502.00000000     822.00000000     495.00000000     511.00000000     999.00000000    1347.00000000    2588.00000000    1311.00000000     451.00000000     438.00000000     461.00000000     581.00000000    2725.00000000    2691.00000000    2652.00000000
      2648.00000000     511.00000000     557.00000000     435.00000000     431.00000000     440.00000000    2639.00000000    2628.00000000    2005.00000000     495.00000000     451.00000000     594.00000000    1323.00000000     524.00000000     458.00000000     443.00000000    2764.00000000    2762.00000000     513.00000000     460.00000000
       511.00000000     613.00000000    1104.00000000     536.00000000     633.00000000     487.00000000     429.00000000     459.00000000     932.00000000     465.00000000     422.00000000     463.00000000     442.00000000     485.00000000     429.00000000     448.00000000     484.00000000     550.00000000     501.00000000    1053.00000000
       586.00000000    2543.00000000     488.00000000    2509.00000000     973.00000000    2545.00000000    2557.00000000    2552.00000000    2276.00000000    1635.00000000    2076.00000000    1182.00000000    2255.00000000    1281.00000000    2564.00000000    2220.00000000    2457.00000000    1849.00000000    1158.00000000    2439.00000000
      1295.00000000    1373.00000000    1269.00000000    1129.00000000    1126.00000000    1001.00000000    1180.00000000    1092.00000000    1175.00000000    1113.00000000    1032.00000000     913.00000000    1063.00000000     984.00000000    1132.00000000     860.00000000    1169.00000000     523.00000000     535.00000000     507.00000000
       484.00000000     490.00000000     508.00000000     591.00000000     484.00000000     501.00000000     455.00000000     438.00000000     438.00000000     449.00000000     456.00000000     496.00000000     453.00000000     757.00000000     464.00000000     510.00000000    2627.00000000     465.00000000     525.00000000     447.00000000
       546.00000000    1010.00000000     977.00000000     626.00000000    2486.00000000     470.00000000     476.00000000     702.00000000     530.00000000    1247.00000000     471.00000000     473.00000000     482.00000000     615.00000000     499.00000000     481.00000000     666.00000000    1178.00000000     438.00000000     435.00000000
       422.00000000     451.00000000     531.00000000     548.00000000     462.00000000    1739.00000000    2682.00000000    2586.00000000     428.00000000     501.00000000     629.00000000    2359.00000000    1287.00000000     461.00000000     463.00000000     497.00000000     505.00000000     462.00000000    1020.00000000    1067.00000000
      2591.00000000     619.00000000     619.00000000     478.00000000     478.00000000     461.00000000     446.00000000     504.00000000     514.00000000     483.00000000     484.00000000     490.00000000     484.00000000     564.00000000     568.00000000     487.00000000     439.00000000     480.00000000     490.00000000     500.00000000
       467.00000000     526.00000000     443.00000000     631.00000000     425.00000000     475.00000000    2390.00000000    2556.00000000    2732.00000000     553.00000000     459.00000000    2589.00000000    1302.00000000    2608.00000000    2693.00000000     456.00000000     436.00000000     517.00000000     462.00000000    2598.00000000
       556.00000000     487.00000000     594.00000000     463.00000000     488.00000000     443.00000000     474.00000000     530.00000000     439.00000000     552.00000000     623.00000000     496.00000000     600.00000000     484.00000000     471.00000000     484.00000000    1121.00000000     521.00000000     471.00000000     453.00000000
       471.00000000     491.00000000     523.00000000     484.00000000     490.00000000     548.00000000     440.00000000     527.00000000     515.00000000     443.00000000     467.00000000     482.00000000     493.00000000    2592.00000000    2664.00000000    2713.00000000    2675.00000000    1454.00000000    1300.00000000     479.00000000
       472.00000000    2460.00000000     463.00000000     566.00000000     455.00000000    1053.00000000    2502.00000000     487.00000000     438.00000000     479.00000000     606.00000000     490.00000000     500.00000000     482.00000000    2617.00000000     486.00000000    2464.00000000     483.00000000    1498.00000000     495.00000000
       468.00000000     472.00000000     480.00000000     619.00000000     473.00000000    2537.00000000     494.00000000     476.00000000     469.00000000    2419.00000000    2499.00000000     498.00000000     465.00000000     550.00000000     488.00000000     952.00000000     470.00000000     449.00000000     515.00000000    1415.00000000
       461.00000000     547.00000000     469.00000000     524.00000000     484.00000000     497.00000000     437.00000000     485.00000000     508.00000000     472.00000000     484.00000000     717.00000000    1009.00000000     460.00000000     449.00000000     492.00000000    1576.00000000     516.00000000     501.00000000     465.00000000
       494.00000000     486.00000000     536.00000000     466.00000000     481.00000000     514.00000000     533.00000000     478.00000000     557.00000000     469.00000000     523.00000000    2749.00000000    2383.00000000     533.00000000     570.00000000    1997.00000000     446.00000000     496.00000000     501.00000000     581.00000000
       455.00000000     530.00000000     496.00000000    2303.00000000     508.00000000    2403.00000000    2457.00000000    2797.00000000     577.00000000    1058.00000000     492.00000000     504.00000000     498.00000000     494.00000000     469.00000000     499.00000000     553.00000000     489.00000000     473.00000000     577.00000000
      2601.00000000    2560.00000000     447.00000000     518.00000000     567.00000000     517.00000000    2427.00000000     504.00000000     523.00000000    2437.00000000    2482.00000000     450.00000000     478.00000000     474.00000000     465.00000000     472.00000000     605.00000000    2270.00000000     553.00000000     520.00000000
       492.00000000    2327.00000000     606.00000000     484.00000000     520.00000000     480.00000000     466.00000000    2166.00000000     445.00000000     489.00000000     527.00000000    2824.00000000    2776.00000000    1423.00000000    2339.00000000    2175.00000000    1250.00000000    2289.00000000    1487.00000000    1106.00000000
      2446.00000000    1144.00000000    2842.00000000    2685.00000000    2425.00000000    2139.00000000    1130.00000000    1093.00000000     552.00000000     577.00000000    1130.00000000    1001.00000000     578.00000000     569.00000000    1065.00000000     974.00000000     997.00000000     991.00000000     576.00000000     593.00000000
       970.00000000     821.00000000     943.00000000     802.00000000     571.00000000     563.00000000     637.00000000     576.00000000     592.00000000     621.00000000     691.00000000     669.00000000     556.00000000    1008.00000000     615.00000000     667.00000000     618.00000000     522.00000000     485.00000000     495.00000000
      2681.00000000    2540.00000000     503.00000000     469.00000000     584.00000000     516.00000000     495.00000000     457.00000000     517.00000000     587.00000000     474.00000000     564.00000000     456.00000000     547.00000000     460.00000000     593.00000000     533.00000000     471.00000000     530.00000000     544.00000000
       508.00000000     504.00000000     489.00000000     519.00000000     452.00000000     903.00000000     449.00000000     466.00000000     476.00000000     549.00000000    2735.00000000     465.00000000     487.00000000    2463.00000000     629.00000000     479.00000000     547.00000000     447.00000000     633.00000000     550.00000000
       509.00000000     443.00000000     641.00000000     550.00000000     549.00000000     836.00000000     521.00000000    2724.00000000    1066.00000000     568.00000000     502.00000000     462.00000000     457.00000000     547.00000000     546.00000000     550.00000000    1005.00000000    1759.00000000     498.00000000     454.00000000
       460.00000000     479.00000000     498.00000000     456.00000000     508.00000000     464.00000000     482.00000000     519.00000000     490.00000000     564.00000000     533.00000000     547.00000000     478.00000000     469.00000000     453.00000000     634.00000000     530.00000000     488.00000000     488.00000000    1930.00000000
       540.00000000     565.00000000     507.00000000    2613.00000000    2806.00000000    2726.00000000     489.00000000     467.00000000     513.00000000     631.00000000     556.00000000     464.00000000     665.00000000     541.00000000     531.00000000     465.00000000    2675.00000000    1945.00000000     497.00000000    2884.00000000
       605.00000000     502.00000000    1088.00000000     497.00000000     515.00000000     509.00000000     463.00000000     697.00000000     451.00000000     462.00000000     537.00000000     553.00000000     475.00000000     498.00000000     502.00000000     504.00000000     524.00000000    2664.00000000    2702.00000000    2685.00000000
      2670.00000000    2509.00000000    1340.00000000    1270.00000000     528.00000000     569.00000000     516.00000000     458.00000000     542.00000000     450.00000000     532.00000000     456.00000000     483.00000000     486.00000000     540.00000000     462.00000000     536.00000000     499.00000000     508.00000000     582.00000000
       814.00000000     574.00000000     718.00000000     475.00000000     537.00000000     503.00000000     531.00000000     468.00000000     501.00000000     462.00000000     532.00000000     506.00000000     544.00000000     480.00000000     521.00000000     506.00000000     442.00000000     492.00000000     506.00000000     503.00000000
      2611.00000000     523.00000000     477.00000000     485.00000000     490.00000000     592.00000000     726.00000000     469.00000000     617.00000000     503.00000000     534.00000000    1093.00000000    2807.00000000     498.00000000    2518.00000000     461.00000000     479.00000000     742.00000000     452.00000000    1369.00000000
       540.00000000    1203.00000000     474.00000000     457.00000000     465.00000000     508.00000000     512.00000000     506.00000000    2714.00000000    2585.00000000     640.00000000     502.00000000     892.00000000     622.00000000     516.00000000     547.00000000     537.00000000    1201.00000000     452.00000000     524.00000000
       514.00000000     497.00000000     521.00000000     557.00000000    1383.00000000     485.00000000     504.00000000     475.00000000     485.00000000     461.00000000     585.00000000     493.00000000     513.00000000     496.00000000    1231.00000000     512.00000000    1680.00000000     469.00000000     503.00000000     473.00000000
       722.00000000     518.00000000     527.00000000     771.00000000     467.00000000    1173.00000000    2504.00000000     547.00000000     481.00000000     525.00000000     490.00000000     521.00000000     541.00000000     497.00000000     498.00000000     524.00000000     527.00000000     490.00000000     487.00000000     475.00000000
       491.00000000     481.00000000     508.00000000     509.00000000    2899.00000000    2664.00000000     471.00000000     538.00000000     459.00000000    1040.00000000     714.00000000     498.00000000    1285.00000000     517.00000000     515.00000000     497.00000000     543.00000000     505.00000000    2735.00000000    1443.00000000
      2748.00000000     514.00000000     496.00000000     501.00000000     463.00000000     618.00000000     528.00000000    2588.00000000    2688.00000000    2614.00000000    1430.00000000    2281.00000000    1231.00000000    2557.00000000    1098.00000000    1079.00000000    1370.00000000    1257.00000000    1353.00000000    1510.00000000
      1255.00000000    1254.00000000    1004.00000000    1331.00000000    1097.00000000    1397.00000000    1185.00000000    1358.00000000    1243.00000000    1266.00000000    1306.00000000     964.00000000    1176.00000000    1107.00000000    1178.00000000     511.00000000     527.00000000    1067.00000000    1034.00000000     540.00000000
       516.00000000     523.00000000     906.00000000     777.00000000     821.00000000     568.00000000     506.00000000     573.00000000     550.00000000     870.00000000     547.00000000     605.00000000     522.00000000     522.00000000     601.00000000     596.00000000     520.00000000     519.00000000     462.00000000     536.00000000
       532.00000000     506.00000000     480.00000000     527.00000000     482.00000000     765.00000000     514.00000000     484.00000000     476.00000000     503.00000000    2513.00000000    1484.00000000     517.00000000     449.00000000     496.00000000     968.00000000     538.00000000     555.00000000     539.00000000     520.00000000
       476.00000000     541.00000000     566.00000000     538.00000000     805.00000000     597.00000000    2592.00000000    2337.00000000    2596.00000000     515.00000000     515.00000000     912.00000000     740.00000000     499.00000000     508.00000000     447.00000000    2537.00000000    2608.00000000    1228.00000000     717.00000000
       567.00000000     528.00000000     559.00000000     808.00000000     487.00000000     524.00000000     480.00000000     820.00000000     485.00000000     524.00000000    2012.00000000    1521.00000000     570.00000000     542.00000000    1137.00000000     662.00000000     471.00000000    1242.00000000     472.00000000     489.00000000
       625.00000000    1129.00000000     475.00000000     483.00000000    1619.00000000    2605.00000000     841.00000000     531.00000000     455.00000000     531.00000000     571.00000000    1438.00000000     513.00000000     596.00000000     748.00000000     498.00000000     505.00000000     468.00000000     458.00000000     514.00000000
       944.00000000     576.00000000    3019.00000000    2953.00000000     550.00000000     869.00000000     542.00000000     678.00000000     514.00000000     601.00000000     470.00000000     557.00000000    1427.00000000    1293.00000000     835.00000000     638.00000000     494.00000000    1165.00000000     521.00000000     554.00000000
       480.00000000    1033.00000000     942.00000000    1161.00000000     461.00000000     649.00000000     526.00000000    1240.00000000     472.00000000     476.00000000    1140.00000000    1298.00000000     539.00000000     633.00000000    1258.00000000     604.00000000     521.00000000    1291.00000000     522.00000000    1132.00000000
       915.00000000     542.00000000     625.00000000     527.00000000     522.00000000     469.00000000     568.00000000     661.00000000     669.00000000     534.00000000    1223.00000000    1089.00000000     666.00000000     882.00000000    2135.00000000     869.00000000     530.00000000     480.00000000    2485.00000000     678.00000000
      2490.00000000    1719.00000000     545.00000000    2491.00000000    2703.00000000    1364.00000000    1128.00000000    1079.00000000     965.00000000     794.00000000     754.00000000    1215.00000000    1099.00000000     902.00000000     776.00000000    1329.00000000     801.00000000     564.00000000    1296.00000000     615.00000000
      1240.00000000    1618.00000000    1184.00000000     741.00000000     523.00000000     670.00000000     474.00000000     567.00000000     459.00000000    1192.00000000     670.00000000     512.00000000     736.00000000     717.00000000    2728.00000000    1152.00000000    1047.00000000    1187.00000000     557.00000000     802.00000000
      1142.00000000     667.00000000    1091.00000000    2113.00000000     664.00000000     593.00000000     469.00000000     526.00000000    1263.00000000    2045.00000000    1277.00000000     521.00000000     527.00000000     723.00000000     846.00000000     720.00000000    1469.00000000    1116.00000000    1038.00000000     576.00000000
       974.00000000     904.00000000    1145.00000000    1061.00000000     883.00000000     983.00000000     532.00000000     492.00000000    1442.00000000    1031.00000000     744.00000000     520.00000000     524.00000000     684.00000000     460.00000000     865.00000000     767.00000000     822.00000000     460.00000000     755.00000000
       709.00000000    1232.00000000    1229.00000000     543.00000000     637.00000000    1049.00000000    1363.00000000    1012.00000000     751.00000000     713.00000000    1111.00000000    1230.00000000    1103.00000000     581.00000000     477.00000000     560.00000000     453.00000000     728.00000000    1110.00000000    1363.00000000
       973.00000000    1170.00000000     983.00000000     484.00000000    1285.00000000    1026.00000000    1172.00000000     692.00000000     727.00000000     884.00000000     486.00000000     639.00000000     836.00000000    1029.00000000    1076.00000000    2085.00000000     786.00000000     739.00000000     749.00000000    1240.00000000
      1190.00000000    1183.00000000     696.00000000    1041.00000000     763.00000000    1338.00000000    1007.00000000     761.00000000     691.00000000    2444.00000000    1233.00000000    1007.00000000    1134.00000000     551.00000000     576.00000000     857.00000000     694.00000000     926.00000000    1022.00000000    1051.00000000
      1016.00000000     961.00000000     573.00000000    1041.00000000    1465.00000000     521.00000000    2505.00000000    2617.00000000    2498.00000000    1624.00000000    1745.00000000    1952.00000000    2700.00000000    1763.00000000    1472.00000000    1492.00000000    1825.00000000    1330.00000000    1197.00000000    1213.00000000
       989.00000000    1059.00000000    1076.00000000    1051.00000000     789.00000000     714.00000000    1200.00000000     777.00000000     775.00000000     879.00000000     868.00000000     878.00000000     968.00000000     785.00000000     741.00000000     669.00000000     581.00000000     595.00000000     746.00000000     542.00000000
       546.00000000     505.00000000     597.00000000     471.00000000     692.00000000    1150.00000000     607.00000000     516.00000000     920.00000000     661.00000000    1097.00000000    1185.00000000     845.00000000     656.00000000     755.00000000    1169.00000000     558.00000000    1141.00000000     615.00000000     831.00000000
       654.00000000    1048.00000000    1011.00000000    1517.00000000     698.00000000     749.00000000     818.00000000    1026.00000000    1583.00000000    1482.00000000     838.00000000    1031.00000000     798.00000000    2613.00000000    1420.00000000    1760.00000000     612.00000000     772.00000000     702.00000000    1102.00000000
       570.00000000     512.00000000     611.00000000     483.00000000    1141.00000000    1080.00000000     784.00000000     651.00000000     539.00000000     728.00000000     660.00000000    1092.00000000     668.00000000     889.00000000     554.00000000     575.00000000     857.00000000    1132.00000000     496.00000000     910.00000000
      1074.00000000    1066.00000000     984.00000000    1140.00000000    1187.00000000    1413.00000000    1421.00000000    1272.00000000    1250.00000000    1086.00000000    1113.00000000    1256.00000000     673.00000000     730.00000000    1134.00000000     979.00000000    1178.00000000    1010.00000000     462.00000000    1107.00000000
      1076.00000000     863.00000000     497.00000000    1022.00000000    1414.00000000     702.00000000     610.00000000     562.00000000     572.00000000     513.00000000     664.00000000     799.00000000     522.00000000    1041.00000000    1930.00000000     615.00000000     761.00000000     919.00000000     943.00000000     672.00000000
       754.00000000     663.00000000     675.00000000    1180.00000000    1093.00000000     947.00000000    1085.00000000     703.00000000     957.00000000     461.00000000    1262.00000000    1150.00000000     825.00000000     975.00000000     712.00000000     799.00000000     592.00000000     827.00000000     604.00000000     465.00000000
       879.00000000     697.00000000     888.00000000    1013.00000000     994.00000000    1092.00000000    1014.00000000    1011.00000000     787.00000000     663.00000000     660.00000000     543.00000000    1068.00000000    1082.00000000    1139.00000000    1056.00000000    1135.00000000    1163.00000000    1915.00000000     465.00000000