# File generated by Flopy version 3.9.3 on 09/05/2025 at 12:52:41.
BEGIN options
  READASARRAYS
END options

BEGIN period  1
  recharge
    CONSTANT  4.75646880E-09
END period  1

